<?xml version="1.0"?>

<!-- generated on 04/02/10 11:42:45 by SUMO sumo Version dev-SVN-r8487
<configuration>

    <input>
        <net-file value="net.net.xml"/>
        <route-files value="input_routes.rou.xml"/>
        <additional-files value="input_additional.add.xml,input_additional2.add.xml"/>
    </input>

    <time>
        <begin value="0"/>
        <end value="1000"/>
    </time>

    <report>
        <no-duration-log value="true"/>
        <no-step-log value="true"/>
    </report>

</configuration>
-->

<netstats>
    <interval begin="0.00" end="25.00" id="dump_25">
        <edge id="beg" sampledSeconds="136.00" traveltime="34.16" density="10.91" occupancy="5.46" waitingTime="0.00" speed="14.60" departed="11" arrived="0" entered="0" left="0" laneChangedFrom="0" laneChangedTo="0"/>
    </interval>
    <interval begin="25.00" end="50.00" id="dump_25">
        <edge id="beg" sampledSeconds="283.46" traveltime="26.98" density="22.74" occupancy="11.37" waitingTime="0.00" speed="18.48" departed="11" arrived="0" entered="0" left="10" laneChangedFrom="0" laneChangedTo="0"/>
        <edge id="middle" sampledSeconds="111.97" traveltime="74.15" density="4.52" occupancy="2.26" waitingTime="0.00" speed="13.36" departed="0" arrived="0" entered="10" left="0" laneChangedFrom="0" laneChangedTo="0"/>
    </interval>
    <interval begin="50.00" end="75.00" id="dump_25">
        <edge id="beg" sampledSeconds="287.14" traveltime="26.93" density="23.04" occupancy="11.52" waitingTime="0.00" speed="18.51" departed="10" arrived="0" entered="0" left="10" laneChangedFrom="0" laneChangedTo="0"/>
        <edge id="middle" sampledSeconds="374.27" traveltime="74.07" density="15.11" occupancy="7.56" waitingTime="0.00" speed="13.37" departed="0" arrived="0" entered="10" left="0" laneChangedFrom="0" laneChangedTo="0"/>
    </interval>
    <interval begin="75.00" end="100.00" id="dump_25">
        <edge id="beg" sampledSeconds="285.13" traveltime="26.82" density="22.88" occupancy="11.44" waitingTime="0.00" speed="18.59" departed="10" arrived="0" entered="0" left="11" laneChangedFrom="0" laneChangedTo="0"/>
        <edge id="middle" sampledSeconds="640.83" traveltime="73.97" density="25.88" occupancy="12.94" waitingTime="0.00" speed="13.39" departed="0" arrived="0" entered="11" left="0" laneChangedFrom="0" laneChangedTo="0"/>
    </interval>
    <interval begin="100.00" end="125.00" id="dump_25">
        <edge id="beg" sampledSeconds="276.84" traveltime="26.95" density="22.21" occupancy="11.11" waitingTime="0.00" speed="18.50" departed="11" arrived="0" entered="0" left="11" laneChangedFrom="0" laneChangedTo="0"/>
        <edge id="end" sampledSeconds="75.28" traveltime="29.29" density="6.04" occupancy="3.02" waitingTime="0.00" speed="17.02" departed="0" arrived="0" entered="8" left="0" laneChangedFrom="0" laneChangedTo="0"/>
        <edge id="middle" sampledSeconds="821.10" traveltime="77.85" density="33.16" occupancy="16.58" waitingTime="0.00" speed="12.72" departed="0" arrived="0" entered="10" left="8" laneChangedFrom="0" laneChangedTo="0"/>
    </interval>
    <interval begin="125.00" end="150.00" id="dump_25">
        <edge id="beg" sampledSeconds="279.67" traveltime="27.09" density="22.44" occupancy="11.22" waitingTime="0.00" speed="18.41" departed="10" arrived="0" entered="0" left="10" laneChangedFrom="0" laneChangedTo="0"/>
        <edge id="end" sampledSeconds="216.17" traveltime="23.36" density="17.34" occupancy="8.67" waitingTime="0.00" speed="21.34" departed="0" arrived="0" entered="9" left="8" laneChangedFrom="0" laneChangedTo="0"/>
        <edge id="middle" sampledSeconds="844.31" traveltime="80.83" density="34.10" occupancy="17.05" waitingTime="0.00" speed="12.25" departed="0" arrived="0" entered="10" left="9" laneChangedFrom="0" laneChangedTo="0"/>
        <edge id="rend" sampledSeconds="3.32" traveltime="18.37" density="0.27" occupancy="0.13" waitingTime="0.00" speed="27.21" departed="0" arrived="8" entered="8" left="0" laneChangedFrom="0" laneChangedTo="0"/>
    </interval>
    <interval begin="150.00" end="175.00" id="dump_25">
        <edge id="beg" sampledSeconds="281.86" traveltime="27.03" density="22.61" occupancy="11.31" waitingTime="0.00" speed="18.44" departed="11" arrived="0" entered="0" left="10" laneChangedFrom="0" laneChangedTo="0"/>
        <edge id="end" sampledSeconds="223.98" traveltime="23.40" density="17.97" occupancy="8.99" waitingTime="0.00" speed="21.30" departed="0" arrived="0" entered="10" left="10" laneChangedFrom="0" laneChangedTo="0"/>
        <edge id="middle" sampledSeconds="861.69" traveltime="83.25" density="34.80" occupancy="17.40" waitingTime="0.00" speed="11.90" departed="0" arrived="0" entered="11" left="10" laneChangedFrom="0" laneChangedTo="0"/>
        <edge id="rend" sampledSeconds="5.24" traveltime="18.31" density="0.42" occupancy="0.21" waitingTime="0.00" speed="27.31" departed="0" arrived="10" entered="10" left="0" laneChangedFrom="0" laneChangedTo="0"/>
    </interval>
    <interval begin="175.00" end="200.00" id="dump_25">
        <edge id="beg" sampledSeconds="286.10" traveltime="27.07" density="22.95" occupancy="11.48" waitingTime="0.00" speed="18.41" departed="11" arrived="0" entered="0" left="11" laneChangedFrom="0" laneChangedTo="0"/>
        <edge id="end" sampledSeconds="220.92" traveltime="23.45" density="17.72" occupancy="8.86" waitingTime="0.00" speed="21.26" departed="0" arrived="0" entered="9" left="9" laneChangedFrom="0" laneChangedTo="0"/>
        <edge id="middle" sampledSeconds="887.52" traveltime="86.42" density="35.84" occupancy="17.92" waitingTime="0.00" speed="11.46" departed="0" arrived="0" entered="11" left="10" laneChangedFrom="0" laneChangedTo="0"/>
        <edge id="rend" sampledSeconds="4.93" traveltime="18.28" density="0.39" occupancy="0.20" waitingTime="0.00" speed="27.35" departed="0" arrived="9" entered="9" left="0" laneChangedFrom="0" laneChangedTo="0"/>
    </interval>
    <interval begin="200.00" end="225.00" id="dump_25">
        <edge id="beg" sampledSeconds="329.10" traveltime="32.31" density="26.40" occupancy="13.20" waitingTime="0.00" speed="15.43" departed="9" arrived="0" entered="0" left="6" laneChangedFrom="0" laneChangedTo="0"/>
        <edge id="end" sampledSeconds="174.73" traveltime="22.24" density="14.02" occupancy="7.01" waitingTime="0.00" speed="22.42" departed="0" arrived="0" entered="5" left="10" laneChangedFrom="0" laneChangedTo="0"/>
        <edge id="middle" sampledSeconds="904.85" traveltime="456.26" density="36.54" occupancy="18.27" waitingTime="0.00" speed="2.17" departed="0" arrived="0" entered="6" left="5" laneChangedFrom="0" laneChangedTo="0"/>
        <edge id="rend" sampledSeconds="5.14" traveltime="18.36" density="0.41" occupancy="0.21" waitingTime="0.00" speed="27.23" departed="0" arrived="10" entered="10" left="0" laneChangedFrom="0" laneChangedTo="0"/>
    </interval>
    <interval begin="225.00" end="250.00" id="dump_25">
        <edge id="beg" sampledSeconds="410.26" traveltime="43.14" density="32.92" occupancy="16.46" waitingTime="0.00" speed="11.56" departed="7" arrived="0" entered="0" left="7" laneChangedFrom="0" laneChangedTo="0"/>
        <edge id="end" sampledSeconds="108.17" traveltime="22.56" density="8.68" occupancy="4.34" waitingTime="0.00" speed="22.10" departed="0" arrived="0" entered="4" left="5" laneChangedFrom="0" laneChangedTo="0"/>
        <edge id="middle" sampledSeconds="947.92" traveltime="462.32" density="38.28" occupancy="19.14" waitingTime="0.00" speed="2.14" departed="0" arrived="0" entered="6" left="3" laneChangedFrom="0" laneChangedTo="0"/>
        <edge id="rend" sampledSeconds="1.66" traveltime="18.14" density="0.13" occupancy="0.07" waitingTime="0.00" speed="27.56" departed="0" arrived="5" entered="5" left="0" laneChangedFrom="0" laneChangedTo="0"/>
    </interval>
    <interval begin="250.00" end="275.00" id="dump_25">
        <edge id="beg" sampledSeconds="314.64" traveltime="97.65" density="25.24" occupancy="12.62" waitingTime="0.00" speed="5.11" departed="0" arrived="0" entered="0" left="5" laneChangedFrom="0" laneChangedTo="0"/>
        <edge id="end" sampledSeconds="44.58" traveltime="22.71" density="3.58" occupancy="1.79" waitingTime="0.00" speed="21.95" departed="0" arrived="0" entered="2" left="3" laneChangedFrom="0" laneChangedTo="0"/>
        <edge id="middle" sampledSeconds="1048.37" traveltime="467.63" density="42.34" occupancy="21.17" waitingTime="0.00" speed="2.12" departed="0" arrived="0" entered="6" left="2" laneChangedFrom="0" laneChangedTo="0"/>
        <edge id="rend" sampledSeconds="1.28" traveltime="18.33" density="0.10" occupancy="0.05" waitingTime="0.00" speed="27.27" departed="0" arrived="3" entered="3" left="0" laneChangedFrom="0" laneChangedTo="0"/>
    </interval>
    <interval begin="275.00" end="300.00" id="dump_25">
        <edge id="beg" sampledSeconds="164.74" traveltime="268.11" density="13.22" occupancy="6.61" waitingTime="0.00" speed="1.86" departed="0" arrived="0" entered="0" left="6" laneChangedFrom="0" laneChangedTo="0"/>
        <edge id="end" sampledSeconds="43.33" traveltime="23.59" density="3.48" occupancy="1.74" waitingTime="0.00" speed="21.13" departed="0" arrived="0" entered="1" left="2" laneChangedFrom="0" laneChangedTo="0"/>
        <edge id="middle" sampledSeconds="1154.67" traveltime="465.08" density="46.63" occupancy="23.31" waitingTime="0.00" speed="2.13" departed="0" arrived="0" entered="6" left="1" laneChangedFrom="0" laneChangedTo="0"/>
        <edge id="rend" sampledSeconds="1.31" traveltime="18.30" density="0.10" occupancy="0.05" waitingTime="0.00" speed="27.32" departed="0" arrived="2" entered="2" left="0" laneChangedFrom="0" laneChangedTo="0"/>
    </interval>
    <interval begin="300.00" end="325.00" id="dump_25">
        <edge id="beg" sampledSeconds="23.69" traveltime="253.33" density="1.90" occupancy="0.95" waitingTime="0.00" speed="1.97" departed="0" arrived="0" entered="0" left="4" laneChangedFrom="0" laneChangedTo="0"/>
        <edge id="end" sampledSeconds="95.72" traveltime="26.33" density="7.68" occupancy="3.84" waitingTime="0.00" speed="18.93" departed="0" arrived="0" entered="7" left="1" laneChangedFrom="0" laneChangedTo="0"/>
        <edge id="middle" sampledSeconds="1198.85" traveltime="94.12" density="48.41" occupancy="24.21" waitingTime="0.00" speed="10.52" departed="0" arrived="0" entered="4" left="8" laneChangedFrom="0" laneChangedTo="0"/>
        <edge id="rend" sampledSeconds="0.24" traveltime="18.00" density="0.02" occupancy="0.01" waitingTime="0.00" speed="27.78" departed="0" arrived="1" entered="1" left="0" laneChangedFrom="0" laneChangedTo="0"/>
    </interval>
    <interval begin="325.00" end="350.00" id="dump_25">
        <edge id="end" sampledSeconds="212.86" traveltime="23.52" density="17.08" occupancy="8.54" waitingTime="0.00" speed="21.20" departed="0" arrived="0" entered="10" left="8" laneChangedFrom="0" laneChangedTo="0"/>
        <edge id="middle" sampledSeconds="1005.17" traveltime="70.71" density="40.59" occupancy="20.30" waitingTime="0.00" speed="14.01" departed="0" arrived="0" entered="0" left="10" laneChangedFrom="0" laneChangedTo="0"/>
        <edge id="rend" sampledSeconds="4.97" traveltime="18.30" density="0.40" occupancy="0.20" waitingTime="0.00" speed="27.32" departed="0" arrived="8" entered="8" left="0" laneChangedFrom="0" laneChangedTo="0"/>
    </interval>
    <interval begin="350.00" end="375.00" id="dump_25">
        <edge id="end" sampledSeconds="215.07" traveltime="23.37" density="17.26" occupancy="8.63" waitingTime="0.00" speed="21.33" departed="0" arrived="0" entered="9" left="10" laneChangedFrom="0" laneChangedTo="0"/>
        <edge id="middle" sampledSeconds="772.58" traveltime="154.52" density="31.20" occupancy="15.60" waitingTime="0.00" speed="6.41" departed="0" arrived="0" entered="0" left="9" laneChangedFrom="0" laneChangedTo="0"/>
        <edge id="rend" sampledSeconds="4.27" traveltime="18.30" density="0.34" occupancy="0.17" waitingTime="0.00" speed="27.33" departed="0" arrived="10" entered="10" left="0" laneChangedFrom="0" laneChangedTo="0"/>
    </interval>
    <interval begin="375.00" end="400.00" id="dump_25">
        <edge id="end" sampledSeconds="216.95" traveltime="23.43" density="17.41" occupancy="8.70" waitingTime="0.00" speed="21.28" departed="0" arrived="0" entered="10" left="9" laneChangedFrom="0" laneChangedTo="0"/>
        <edge id="middle" sampledSeconds="540.05" traveltime="268.25" density="21.81" occupancy="10.90" waitingTime="0.00" speed="3.69" departed="0" arrived="0" entered="0" left="9" laneChangedFrom="0" laneChangedTo="0"/>
        <edge id="rend" sampledSeconds="3.62" traveltime="18.25" density="0.29" occupancy="0.14" waitingTime="0.00" speed="27.39" departed="0" arrived="9" entered="9" left="0" laneChangedFrom="0" laneChangedTo="0"/>
    </interval>
    <interval begin="400.00" end="425.00" id="dump_25">
        <edge id="end" sampledSeconds="225.76" traveltime="23.15" density="18.11" occupancy="9.06" waitingTime="0.00" speed="21.54" departed="0" arrived="0" entered="9" left="10" laneChangedFrom="0" laneChangedTo="0"/>
        <edge id="middle" sampledSeconds="299.02" traveltime="254.31" density="12.08" occupancy="6.04" waitingTime="0.00" speed="3.89" departed="0" arrived="0" entered="0" left="10" laneChangedFrom="0" laneChangedTo="0"/>
        <edge id="rend" sampledSeconds="3.51" traveltime="18.28" density="0.28" occupancy="0.14" waitingTime="0.00" speed="27.36" departed="0" arrived="10" entered="10" left="0" laneChangedFrom="0" laneChangedTo="0"/>
    </interval>
    <interval begin="425.00" end="450.00" id="dump_25">
        <edge id="end" sampledSeconds="215.93" traveltime="22.99" density="17.32" occupancy="8.66" waitingTime="0.00" speed="21.69" departed="0" arrived="0" entered="8" left="9" laneChangedFrom="0" laneChangedTo="0"/>
        <edge id="middle" sampledSeconds="67.96" traveltime="260.94" density="2.74" occupancy="1.37" waitingTime="0.00" speed="3.80" departed="0" arrived="0" entered="0" left="7" laneChangedFrom="0" laneChangedTo="0"/>
        <edge id="rend" sampledSeconds="6.06" traveltime="18.29" density="0.48" occupancy="0.24" waitingTime="0.00" speed="27.34" departed="0" arrived="9" entered="9" left="0" laneChangedFrom="0" laneChangedTo="0"/>
    </interval>
    <interval begin="450.00" end="475.00" id="dump_25">
        <edge id="end" sampledSeconds="64.71" traveltime="18.79" density="5.19" occupancy="2.60" waitingTime="0.00" speed="26.53" departed="0" arrived="0" entered="0" left="7" laneChangedFrom="0" laneChangedTo="0"/>
        <edge id="rend" sampledSeconds="3.27" traveltime="18.26" density="0.26" occupancy="0.13" waitingTime="0.00" speed="27.38" departed="0" arrived="7" entered="7" left="0" laneChangedFrom="0" laneChangedTo="0"/>
    </interval>
    <interval begin="475.00" end="500.00" id="dump_25">
    </interval>
    <interval begin="500.00" end="525.00" id="dump_25">
    </interval>
    <interval begin="525.00" end="550.00" id="dump_25">
    </interval>
    <interval begin="550.00" end="575.00" id="dump_25">
    </interval>
    <interval begin="575.00" end="600.00" id="dump_25">
    </interval>
    <interval begin="600.00" end="625.00" id="dump_25">
    </interval>
    <interval begin="625.00" end="650.00" id="dump_25">
    </interval>
    <interval begin="650.00" end="675.00" id="dump_25">
    </interval>
    <interval begin="675.00" end="700.00" id="dump_25">
    </interval>
    <interval begin="700.00" end="725.00" id="dump_25">
    </interval>
    <interval begin="725.00" end="750.00" id="dump_25">
    </interval>
    <interval begin="750.00" end="775.00" id="dump_25">
    </interval>
    <interval begin="775.00" end="800.00" id="dump_25">
    </interval>
    <interval begin="800.00" end="825.00" id="dump_25">
    </interval>
    <interval begin="825.00" end="850.00" id="dump_25">
    </interval>
    <interval begin="850.00" end="875.00" id="dump_25">
    </interval>
    <interval begin="875.00" end="900.00" id="dump_25">
    </interval>
    <interval begin="900.00" end="925.00" id="dump_25">
    </interval>
    <interval begin="925.00" end="950.00" id="dump_25">
    </interval>
    <interval begin="950.00" end="975.00" id="dump_25">
    </interval>
    <interval begin="975.00" end="1000.00" id="dump_25">
    </interval>
</netstats>
