<additional>
    <variableSpeedSign id="vss" objectid="middle_0" file="input_definition.def.xml"/>
</additional>