<?xml version="1.0" encoding="UTF-8"?>
<connections version="0.13">
    <crossing node="C" edges="EC" width="4.5"/>
    <crossing node="C" edges="CE" width="4.5"/>
    <crossing node="C" edges="SC" width="4.5"/>
    <crossing node="C" edges="CS" width="4.5"/>
    <crossing node="C" edges="WC" width="4.5"/>
    <crossing node="C" edges="CW" width="4.5"/>
</connections>
