<?xml version="1.0" encoding="UTF-8"?>
<!-- generated on 2021-06-08 15:47:19.787793 by $Id$ v1_9_2+0392-aeb53d5
  options: -n net.net.xml -a input_additional.add.xml -r input_routes.rou.xml -o out.add.xml -v
-->
<additional xmlns:xsi="http://www.w3.org/2001/XMLSchema-instance" xsi:noNamespaceSchemaLocation="http://sumo.dlr.de/xsd/additional_file.xsd">
    <railSignalConstraints id="B">
        <insertionPredecessor tripId="t1" tl="B" foes="t0"/>
    </railSignalConstraints>
</additional>
