<?xml version="1.0" encoding="UTF-8"?>

<!-- generated on 2021-06-10 09:08:41 by Eclipse SUMO duarouter Version v1_9_2+0439-960336d
This data file and the accompanying materials
are made available under the terms of the Eclipse Public License v2.0
which accompanies this distribution, and is available at
http://www.eclipse.org/legal/epl-v20.html
SPDX-License-Identifier: EPL-2.0
<configuration xmlns:xsi="http://www.w3.org/2001/XMLSchema-instance" xsi:noNamespaceSchemaLocation="http://sumo.dlr.de/xsd/duarouterConfiguration.xsd">

    <input>
        <net-file value="input_net.net.xml"/>
        <additional-files value="input_additional.add.xml"/>
        <route-files value="input_routes.rou.xml"/>
    </input>

    <output>
        <output-file value="routes.rou.xml"/>
        <write-license value="true"/>
        <alternatives-output value="routes.rou.alt.xml"/>
    </output>

    <processing>
        <persontrip.transfer.car-walk value="ptStops"/>
    </processing>

    <report>
        <xml-validation value="never"/>
        <xml-validation.routes value="never"/>
        <no-step-log value="true"/>
    </report>

</configuration>
-->

<routes xmlns:xsi="http://www.w3.org/2001/XMLSchema-instance" xsi:noNamespaceSchemaLocation="http://sumo.dlr.de/xsd/routes_file.xsd">
    <vehicle id="p0_0" depart="triggered">
        <routeDistribution last="0">
            <route cost="0.00" probability="1.00000000" edges="beg beg2left"/>
        </routeDistribution>
    </vehicle>
    <person id="p0" depart="0.00">
        <personTrip from="beg" to="end" modes="public car" walkFactor="0.75" costs="196.90 186.66 241.57"/>
    </person>
</routes>
