<?xml version="1.0" encoding="UTF-8"?>

<!-- generated on 2021-11-17 16:14:55 by Eclipse SUMO netedit Version v1_10_0+2369-be805626ae7
-->

<additional xmlns:xsi="http://www.w3.org/2001/XMLSchema-instance" xsi:noNamespaceSchemaLocation="http://sumo.dlr.de/xsd/additional_file.xsd">
    <poi id="POI_0" color="red" layer="202.00" x="-30.00" y="30.00"/>
</additional>
