<?xml version="1.0" encoding="UTF-8"?>

<nodes version="1.20" xmlns:xsi="http://www.w3.org/2001/XMLSchema-instance" xsi:noNamespaceSchemaLocation="http://sumo.dlr.de/xsd/nodes_file.xsd">
    <node id="A" x="0.00" y="0"/>
    <node id="B" x="100" y="0"/>
</nodes>
