<?xml version="1.0" encoding="UTF-8"?>

<!-- generated on 2022-08-31 07:45:34 by Eclipse SUMO sumo Version v1_14_1+0698-6b8d6bc
This data file and the accompanying materials
are made available under the terms of the Eclipse Public License v2.0
which accompanies this distribution, and is available at
http://www.eclipse.org/legal/epl-v20.html
This file may also be made available under the following Secondary
Licenses when the conditions for such availability set forth in the Eclipse
Public License 2.0 are satisfied: GNU General Public License, version 2
or later which is available at
https://www.gnu.org/licenses/old-licenses/gpl-2.0-standalone.html
SPDX-License-Identifier: EPL-2.0 OR GPL-2.0-or-later
<configuration xmlns:xsi="http://www.w3.org/2001/XMLSchema-instance" xsi:noNamespaceSchemaLocation="http://sumo.dlr.de/xsd/sumoConfiguration.xsd">

    <input>
        <net-file value="net.net.xml"/>
        <route-files value="input_routes.rou.xml"/>
    </input>

    <output>
        <write-license value="true"/>
        <tripinfo-output value="tripinfos.xml"/>
        <tripinfo-output.write-unfinished value="true"/>
        <link-output value="linkstate.xml"/>
    </output>

    <time>
        <end value="20"/>
        <step-length value="0.1"/>
    </time>

    <processing>
        <default.speeddev value="0"/>
    </processing>

    <report>
        <xml-validation value="never"/>
        <duration-log.disable value="true"/>
        <no-step-log value="true"/>
    </report>

    <tripinfo_device>
        <device.tripinfo.explicit value="vehicle_0"/>
    </tripinfo_device>

    <mesoscopic>
        <mesosim value="true"/>
        <meso-junction-control value="true"/>
    </mesoscopic>

</configuration>
-->

<link-output>
    <timestep id="0.00">
        <link from="23603261#4_0" via="" to="23602742_0">
            <approaching id="vehicle_0" impatience="0.00" arrivalTime="10.52" leaveTime="11.71" arrivalSpeed="8.33" arrivalSpeedBraking="8.33" leaveSpeed="8.33" willPass="1"/>
        </link>
        <link from="289207651#0_0" via="" to="289207651#1_0">
            <approaching id="vehicle_1" impatience="0.00" arrivalTime="2.60" leaveTime="2.97" arrivalSpeed="13.89" arrivalSpeedBraking="13.89" leaveSpeed="13.89" willPass="1"/>
        </link>
    </timestep>
    <timestep id="0.10">
        <link from="23603261#4_0" via="" to="23602742_0">
            <approaching id="vehicle_0" impatience="0.00" arrivalTime="10.52" leaveTime="11.71" arrivalSpeed="8.33" arrivalSpeedBraking="8.33" leaveSpeed="8.33" willPass="1"/>
        </link>
        <link from="289207651#0_0" via="" to="289207651#1_0">
            <approaching id="vehicle_1" impatience="0.00" arrivalTime="2.60" leaveTime="2.97" arrivalSpeed="13.89" arrivalSpeedBraking="13.89" leaveSpeed="13.89" willPass="1"/>
        </link>
    </timestep>
    <timestep id="0.20">
        <link from="23603261#4_0" via="" to="23602742_0">
            <approaching id="vehicle_0" impatience="0.00" arrivalTime="10.52" leaveTime="11.71" arrivalSpeed="8.33" arrivalSpeedBraking="8.33" leaveSpeed="8.33" willPass="1"/>
        </link>
        <link from="289207651#0_0" via="" to="289207651#1_0">
            <approaching id="vehicle_1" impatience="0.00" arrivalTime="2.60" leaveTime="2.97" arrivalSpeed="13.89" arrivalSpeedBraking="13.89" leaveSpeed="13.89" willPass="1"/>
        </link>
    </timestep>
    <timestep id="0.30">
        <link from="23603261#4_0" via="" to="23602742_0">
            <approaching id="vehicle_0" impatience="0.00" arrivalTime="10.52" leaveTime="11.71" arrivalSpeed="8.33" arrivalSpeedBraking="8.33" leaveSpeed="8.33" willPass="1"/>
        </link>
        <link from="289207651#0_0" via="" to="289207651#1_0">
            <approaching id="vehicle_1" impatience="0.00" arrivalTime="2.60" leaveTime="2.97" arrivalSpeed="13.89" arrivalSpeedBraking="13.89" leaveSpeed="13.89" willPass="1"/>
        </link>
    </timestep>
    <timestep id="0.40">
        <link from="23603261#4_0" via="" to="23602742_0">
            <approaching id="vehicle_0" impatience="0.00" arrivalTime="10.52" leaveTime="11.71" arrivalSpeed="8.33" arrivalSpeedBraking="8.33" leaveSpeed="8.33" willPass="1"/>
        </link>
        <link from="289207651#0_0" via="" to="289207651#1_0">
            <approaching id="vehicle_1" impatience="0.00" arrivalTime="2.60" leaveTime="2.97" arrivalSpeed="13.89" arrivalSpeedBraking="13.89" leaveSpeed="13.89" willPass="1"/>
        </link>
    </timestep>
    <timestep id="0.50">
        <link from="23603261#4_0" via="" to="23602742_0">
            <approaching id="vehicle_0" impatience="0.00" arrivalTime="10.52" leaveTime="11.71" arrivalSpeed="8.33" arrivalSpeedBraking="8.33" leaveSpeed="8.33" willPass="1"/>
        </link>
        <link from="289207651#0_0" via="" to="289207651#1_0">
            <approaching id="vehicle_1" impatience="0.00" arrivalTime="2.60" leaveTime="2.97" arrivalSpeed="13.89" arrivalSpeedBraking="13.89" leaveSpeed="13.89" willPass="1"/>
        </link>
    </timestep>
    <timestep id="0.60">
        <link from="23603261#4_0" via="" to="23602742_0">
            <approaching id="vehicle_0" impatience="0.00" arrivalTime="10.52" leaveTime="11.71" arrivalSpeed="8.33" arrivalSpeedBraking="8.33" leaveSpeed="8.33" willPass="1"/>
        </link>
        <link from="289207651#0_0" via="" to="289207651#1_0">
            <approaching id="vehicle_1" impatience="0.00" arrivalTime="2.60" leaveTime="2.97" arrivalSpeed="13.89" arrivalSpeedBraking="13.89" leaveSpeed="13.89" willPass="1"/>
        </link>
    </timestep>
    <timestep id="0.70">
        <link from="23603261#4_0" via="" to="23602742_0">
            <approaching id="vehicle_0" impatience="0.00" arrivalTime="10.52" leaveTime="11.71" arrivalSpeed="8.33" arrivalSpeedBraking="8.33" leaveSpeed="8.33" willPass="1"/>
        </link>
        <link from="289207651#0_0" via="" to="289207651#1_0">
            <approaching id="vehicle_1" impatience="0.00" arrivalTime="2.60" leaveTime="2.97" arrivalSpeed="13.89" arrivalSpeedBraking="13.89" leaveSpeed="13.89" willPass="1"/>
        </link>
    </timestep>
    <timestep id="0.80">
        <link from="23603261#4_0" via="" to="23602742_0">
            <approaching id="vehicle_0" impatience="0.00" arrivalTime="10.52" leaveTime="11.71" arrivalSpeed="8.33" arrivalSpeedBraking="8.33" leaveSpeed="8.33" willPass="1"/>
        </link>
        <link from="289207651#0_0" via="" to="289207651#1_0">
            <approaching id="vehicle_1" impatience="0.00" arrivalTime="2.60" leaveTime="2.97" arrivalSpeed="13.89" arrivalSpeedBraking="13.89" leaveSpeed="13.89" willPass="1"/>
        </link>
    </timestep>
    <timestep id="0.90">
        <link from="23603261#4_0" via="" to="23602742_0">
            <approaching id="vehicle_0" impatience="0.00" arrivalTime="10.52" leaveTime="11.71" arrivalSpeed="8.33" arrivalSpeedBraking="8.33" leaveSpeed="8.33" willPass="1"/>
        </link>
        <link from="289207651#0_0" via="" to="289207651#1_0">
            <approaching id="vehicle_1" impatience="0.00" arrivalTime="2.60" leaveTime="2.97" arrivalSpeed="13.89" arrivalSpeedBraking="13.89" leaveSpeed="13.89" willPass="1"/>
        </link>
    </timestep>
    <timestep id="1.00">
        <link from="23603261#4_0" via="" to="23602742_0">
            <approaching id="vehicle_0" impatience="0.00" arrivalTime="10.52" leaveTime="11.71" arrivalSpeed="8.33" arrivalSpeedBraking="8.33" leaveSpeed="8.33" willPass="1"/>
        </link>
        <link from="289207651#0_0" via="" to="289207651#1_0">
            <approaching id="vehicle_1" impatience="0.00" arrivalTime="2.60" leaveTime="2.97" arrivalSpeed="13.89" arrivalSpeedBraking="13.89" leaveSpeed="13.89" willPass="1"/>
        </link>
    </timestep>
    <timestep id="1.10">
        <link from="23603261#4_0" via="" to="23602742_0">
            <approaching id="vehicle_0" impatience="0.00" arrivalTime="10.52" leaveTime="11.71" arrivalSpeed="8.33" arrivalSpeedBraking="8.33" leaveSpeed="8.33" willPass="1"/>
        </link>
        <link from="289207651#0_0" via="" to="289207651#1_0">
            <approaching id="vehicle_1" impatience="0.00" arrivalTime="2.60" leaveTime="2.97" arrivalSpeed="13.89" arrivalSpeedBraking="13.89" leaveSpeed="13.89" willPass="1"/>
        </link>
    </timestep>
    <timestep id="1.20">
        <link from="23603261#4_0" via="" to="23602742_0">
            <approaching id="vehicle_0" impatience="0.00" arrivalTime="10.52" leaveTime="11.71" arrivalSpeed="8.33" arrivalSpeedBraking="8.33" leaveSpeed="8.33" willPass="1"/>
        </link>
        <link from="289207651#0_0" via="" to="289207651#1_0">
            <approaching id="vehicle_1" impatience="0.00" arrivalTime="2.60" leaveTime="2.97" arrivalSpeed="13.89" arrivalSpeedBraking="13.89" leaveSpeed="13.89" willPass="1"/>
        </link>
    </timestep>
    <timestep id="1.30">
        <link from="23603261#4_0" via="" to="23602742_0">
            <approaching id="vehicle_0" impatience="0.00" arrivalTime="10.52" leaveTime="11.71" arrivalSpeed="8.33" arrivalSpeedBraking="8.33" leaveSpeed="8.33" willPass="1"/>
        </link>
        <link from="289207651#0_0" via="" to="289207651#1_0">
            <approaching id="vehicle_1" impatience="0.00" arrivalTime="2.60" leaveTime="2.97" arrivalSpeed="13.89" arrivalSpeedBraking="13.89" leaveSpeed="13.89" willPass="1"/>
        </link>
    </timestep>
    <timestep id="1.40">
        <link from="23603261#4_0" via="" to="23602742_0">
            <approaching id="vehicle_0" impatience="0.00" arrivalTime="10.52" leaveTime="11.71" arrivalSpeed="8.33" arrivalSpeedBraking="8.33" leaveSpeed="8.33" willPass="1"/>
        </link>
        <link from="289207651#0_0" via="" to="289207651#1_0">
            <approaching id="vehicle_1" impatience="0.00" arrivalTime="2.60" leaveTime="2.97" arrivalSpeed="13.89" arrivalSpeedBraking="13.89" leaveSpeed="13.89" willPass="1"/>
        </link>
    </timestep>
    <timestep id="1.50">
        <link from="23603261#4_0" via="" to="23602742_0">
            <approaching id="vehicle_0" impatience="0.00" arrivalTime="10.52" leaveTime="11.71" arrivalSpeed="8.33" arrivalSpeedBraking="8.33" leaveSpeed="8.33" willPass="1"/>
        </link>
        <link from="289207651#0_0" via="" to="289207651#1_0">
            <approaching id="vehicle_1" impatience="0.00" arrivalTime="2.60" leaveTime="2.97" arrivalSpeed="13.89" arrivalSpeedBraking="13.89" leaveSpeed="13.89" willPass="1"/>
        </link>
    </timestep>
    <timestep id="1.60">
        <link from="23603261#4_0" via="" to="23602742_0">
            <approaching id="vehicle_0" impatience="0.00" arrivalTime="10.52" leaveTime="11.71" arrivalSpeed="8.33" arrivalSpeedBraking="8.33" leaveSpeed="8.33" willPass="1"/>
        </link>
        <link from="289207651#0_0" via="" to="289207651#1_0">
            <approaching id="vehicle_1" impatience="0.00" arrivalTime="2.60" leaveTime="2.97" arrivalSpeed="13.89" arrivalSpeedBraking="13.89" leaveSpeed="13.89" willPass="1"/>
        </link>
    </timestep>
    <timestep id="1.70">
        <link from="23603261#4_0" via="" to="23602742_0">
            <approaching id="vehicle_0" impatience="0.00" arrivalTime="10.52" leaveTime="11.71" arrivalSpeed="8.33" arrivalSpeedBraking="8.33" leaveSpeed="8.33" willPass="1"/>
        </link>
        <link from="289207651#0_0" via="" to="289207651#1_0">
            <approaching id="vehicle_1" impatience="0.00" arrivalTime="2.60" leaveTime="2.97" arrivalSpeed="13.89" arrivalSpeedBraking="13.89" leaveSpeed="13.89" willPass="1"/>
        </link>
    </timestep>
    <timestep id="1.80">
        <link from="23603261#4_0" via="" to="23602742_0">
            <approaching id="vehicle_0" impatience="0.00" arrivalTime="10.52" leaveTime="11.71" arrivalSpeed="8.33" arrivalSpeedBraking="8.33" leaveSpeed="8.33" willPass="1"/>
        </link>
        <link from="289207651#0_0" via="" to="289207651#1_0">
            <approaching id="vehicle_1" impatience="0.00" arrivalTime="2.60" leaveTime="2.97" arrivalSpeed="13.89" arrivalSpeedBraking="13.89" leaveSpeed="13.89" willPass="1"/>
        </link>
    </timestep>
    <timestep id="1.90">
        <link from="23603261#4_0" via="" to="23602742_0">
            <approaching id="vehicle_0" impatience="0.00" arrivalTime="10.52" leaveTime="11.71" arrivalSpeed="8.33" arrivalSpeedBraking="8.33" leaveSpeed="8.33" willPass="1"/>
        </link>
        <link from="289207651#0_0" via="" to="289207651#1_0">
            <approaching id="vehicle_1" impatience="0.00" arrivalTime="2.60" leaveTime="2.97" arrivalSpeed="13.89" arrivalSpeedBraking="13.89" leaveSpeed="13.89" willPass="1"/>
        </link>
    </timestep>
    <timestep id="2.00">
        <link from="23603261#4_0" via="" to="23602742_0">
            <approaching id="vehicle_0" impatience="0.00" arrivalTime="10.52" leaveTime="11.71" arrivalSpeed="8.33" arrivalSpeedBraking="8.33" leaveSpeed="8.33" willPass="1"/>
        </link>
        <link from="289207651#0_0" via="" to="289207651#1_0">
            <approaching id="vehicle_1" impatience="0.00" arrivalTime="2.60" leaveTime="2.97" arrivalSpeed="13.89" arrivalSpeedBraking="13.89" leaveSpeed="13.89" willPass="1"/>
        </link>
    </timestep>
    <timestep id="2.10">
        <link from="23603261#4_0" via="" to="23602742_0">
            <approaching id="vehicle_0" impatience="0.00" arrivalTime="10.52" leaveTime="11.71" arrivalSpeed="8.33" arrivalSpeedBraking="8.33" leaveSpeed="8.33" willPass="1"/>
        </link>
        <link from="289207651#0_0" via="" to="289207651#1_0">
            <approaching id="vehicle_1" impatience="0.00" arrivalTime="2.60" leaveTime="2.97" arrivalSpeed="13.89" arrivalSpeedBraking="13.89" leaveSpeed="13.89" willPass="1"/>
        </link>
    </timestep>
    <timestep id="2.20">
        <link from="23603261#4_0" via="" to="23602742_0">
            <approaching id="vehicle_0" impatience="0.00" arrivalTime="10.52" leaveTime="11.71" arrivalSpeed="8.33" arrivalSpeedBraking="8.33" leaveSpeed="8.33" willPass="1"/>
        </link>
        <link from="289207651#0_0" via="" to="289207651#1_0">
            <approaching id="vehicle_1" impatience="0.00" arrivalTime="2.60" leaveTime="2.97" arrivalSpeed="13.89" arrivalSpeedBraking="13.89" leaveSpeed="13.89" willPass="1"/>
        </link>
    </timestep>
    <timestep id="2.30">
        <link from="23603261#4_0" via="" to="23602742_0">
            <approaching id="vehicle_0" impatience="0.00" arrivalTime="10.52" leaveTime="11.71" arrivalSpeed="8.33" arrivalSpeedBraking="8.33" leaveSpeed="8.33" willPass="1"/>
        </link>
        <link from="289207651#0_0" via="" to="289207651#1_0">
            <approaching id="vehicle_1" impatience="0.00" arrivalTime="2.60" leaveTime="2.97" arrivalSpeed="13.89" arrivalSpeedBraking="13.89" leaveSpeed="13.89" willPass="1"/>
        </link>
    </timestep>
    <timestep id="2.40">
        <link from="23603261#4_0" via="" to="23602742_0">
            <approaching id="vehicle_0" impatience="0.00" arrivalTime="10.52" leaveTime="11.71" arrivalSpeed="8.33" arrivalSpeedBraking="8.33" leaveSpeed="8.33" willPass="1"/>
        </link>
        <link from="289207651#0_0" via="" to="289207651#1_0">
            <approaching id="vehicle_1" impatience="0.00" arrivalTime="2.60" leaveTime="2.97" arrivalSpeed="13.89" arrivalSpeedBraking="13.89" leaveSpeed="13.89" willPass="1"/>
        </link>
    </timestep>
    <timestep id="2.50">
        <link from="23603261#4_0" via="" to="23602742_0">
            <approaching id="vehicle_0" impatience="0.00" arrivalTime="10.52" leaveTime="11.71" arrivalSpeed="8.33" arrivalSpeedBraking="8.33" leaveSpeed="8.33" willPass="1"/>
        </link>
        <link from="289207651#0_0" via="" to="289207651#1_0">
            <approaching id="vehicle_1" impatience="0.00" arrivalTime="2.60" leaveTime="2.97" arrivalSpeed="13.89" arrivalSpeedBraking="13.89" leaveSpeed="13.89" willPass="1"/>
        </link>
    </timestep>
    <timestep id="2.60">
        <link from="23603261#4_0" via="" to="23602742_0">
            <approaching id="vehicle_0" impatience="0.00" arrivalTime="10.52" leaveTime="11.71" arrivalSpeed="8.33" arrivalSpeedBraking="8.33" leaveSpeed="8.33" willPass="1"/>
        </link>
        <link from="289207651#0_0" via="" to="289207651#1_0">
            <approaching id="vehicle_1" impatience="0.01" arrivalTime="2.60" leaveTime="2.97" arrivalSpeed="13.89" arrivalSpeedBraking="13.89" leaveSpeed="13.89" willPass="1"/>
        </link>
    </timestep>
    <timestep id="2.70">
        <link from="23603261#4_0" via="" to="23602742_0">
            <approaching id="vehicle_0" impatience="0.00" arrivalTime="10.52" leaveTime="11.71" arrivalSpeed="8.33" arrivalSpeedBraking="8.33" leaveSpeed="8.33" willPass="1"/>
        </link>
        <link from="289207651#0_0" via="" to="289207651#1_0">
            <approaching id="vehicle_1" impatience="0.01" arrivalTime="2.60" leaveTime="2.97" arrivalSpeed="13.89" arrivalSpeedBraking="13.89" leaveSpeed="13.89" willPass="1"/>
        </link>
    </timestep>
    <timestep id="2.80">
        <link from="23603261#4_0" via="" to="23602742_0">
            <approaching id="vehicle_0" impatience="0.00" arrivalTime="10.52" leaveTime="11.71" arrivalSpeed="8.33" arrivalSpeedBraking="8.33" leaveSpeed="8.33" willPass="1"/>
        </link>
        <link from="289207651#0_0" via="" to="289207651#1_0">
            <approaching id="vehicle_1" impatience="0.01" arrivalTime="2.60" leaveTime="2.97" arrivalSpeed="13.89" arrivalSpeedBraking="13.89" leaveSpeed="13.89" willPass="1"/>
        </link>
    </timestep>
    <timestep id="2.90">
        <link from="23603261#4_0" via="" to="23602742_0">
            <approaching id="vehicle_0" impatience="0.00" arrivalTime="10.52" leaveTime="11.71" arrivalSpeed="8.33" arrivalSpeedBraking="8.33" leaveSpeed="8.33" willPass="1"/>
        </link>
        <link from="289207651#0_0" via="" to="289207651#1_0">
            <approaching id="vehicle_1" impatience="0.01" arrivalTime="2.60" leaveTime="2.97" arrivalSpeed="13.89" arrivalSpeedBraking="13.89" leaveSpeed="13.89" willPass="1"/>
        </link>
    </timestep>
    <timestep id="3.00">
        <link from="23603261#4_0" via="" to="23602742_0">
            <approaching id="vehicle_0" impatience="0.00" arrivalTime="10.52" leaveTime="11.71" arrivalSpeed="8.33" arrivalSpeedBraking="8.33" leaveSpeed="8.33" willPass="1"/>
        </link>
        <link from="289207651#0_0" via="" to="289207651#1_0">
            <approaching id="vehicle_1" impatience="0.01" arrivalTime="2.60" leaveTime="2.97" arrivalSpeed="13.89" arrivalSpeedBraking="13.89" leaveSpeed="13.89" willPass="1"/>
        </link>
    </timestep>
    <timestep id="3.10">
        <link from="23603261#4_0" via="" to="23602742_0">
            <approaching id="vehicle_0" impatience="0.00" arrivalTime="10.52" leaveTime="11.71" arrivalSpeed="8.33" arrivalSpeedBraking="8.33" leaveSpeed="8.33" willPass="1"/>
        </link>
        <link from="289207651#0_0" via="" to="289207651#1_0">
            <approaching id="vehicle_1" impatience="0.01" arrivalTime="2.60" leaveTime="2.97" arrivalSpeed="13.89" arrivalSpeedBraking="13.89" leaveSpeed="13.89" willPass="1"/>
        </link>
    </timestep>
    <timestep id="3.20">
        <link from="23603261#4_0" via="" to="23602742_0">
            <approaching id="vehicle_0" impatience="0.00" arrivalTime="10.52" leaveTime="11.71" arrivalSpeed="8.33" arrivalSpeedBraking="8.33" leaveSpeed="8.33" willPass="1"/>
        </link>
        <link from="289207651#0_0" via="" to="289207651#1_0">
            <approaching id="vehicle_1" impatience="0.01" arrivalTime="2.60" leaveTime="2.97" arrivalSpeed="13.89" arrivalSpeedBraking="13.89" leaveSpeed="13.89" willPass="1"/>
        </link>
    </timestep>
    <timestep id="3.30">
        <link from="23603261#4_0" via="" to="23602742_0">
            <approaching id="vehicle_0" impatience="0.00" arrivalTime="10.52" leaveTime="11.71" arrivalSpeed="8.33" arrivalSpeedBraking="8.33" leaveSpeed="8.33" willPass="1"/>
        </link>
        <link from="289207651#0_0" via="" to="289207651#1_0">
            <approaching id="vehicle_1" impatience="0.01" arrivalTime="2.60" leaveTime="2.97" arrivalSpeed="13.89" arrivalSpeedBraking="13.89" leaveSpeed="13.89" willPass="1"/>
        </link>
    </timestep>
    <timestep id="3.40">
        <link from="23603261#4_0" via="" to="23602742_0">
            <approaching id="vehicle_0" impatience="0.00" arrivalTime="10.52" leaveTime="11.71" arrivalSpeed="8.33" arrivalSpeedBraking="8.33" leaveSpeed="8.33" willPass="1"/>
        </link>
        <link from="289207651#0_0" via="" to="289207651#1_0">
            <approaching id="vehicle_1" impatience="0.01" arrivalTime="2.60" leaveTime="2.97" arrivalSpeed="13.89" arrivalSpeedBraking="13.89" leaveSpeed="13.89" willPass="1"/>
        </link>
    </timestep>
    <timestep id="3.50">
        <link from="23603261#4_0" via="" to="23602742_0">
            <approaching id="vehicle_0" impatience="0.00" arrivalTime="10.52" leaveTime="11.71" arrivalSpeed="8.33" arrivalSpeedBraking="8.33" leaveSpeed="8.33" willPass="1"/>
        </link>
        <link from="289207651#0_0" via="" to="289207651#1_0">
            <approaching id="vehicle_1" impatience="0.01" arrivalTime="2.60" leaveTime="2.97" arrivalSpeed="13.89" arrivalSpeedBraking="13.89" leaveSpeed="13.89" willPass="1"/>
        </link>
    </timestep>
    <timestep id="3.60">
        <link from="23603261#4_0" via="" to="23602742_0">
            <approaching id="vehicle_0" impatience="0.00" arrivalTime="10.52" leaveTime="11.71" arrivalSpeed="8.33" arrivalSpeedBraking="8.33" leaveSpeed="8.33" willPass="1"/>
        </link>
        <link from="289207651#0_0" via="" to="289207651#1_0">
            <approaching id="vehicle_1" impatience="0.01" arrivalTime="2.60" leaveTime="2.97" arrivalSpeed="13.89" arrivalSpeedBraking="13.89" leaveSpeed="13.89" willPass="1"/>
        </link>
    </timestep>
    <timestep id="3.70">
        <link from="23603261#4_0" via="" to="23602742_0">
            <approaching id="vehicle_0" impatience="0.00" arrivalTime="10.52" leaveTime="11.71" arrivalSpeed="8.33" arrivalSpeedBraking="8.33" leaveSpeed="8.33" willPass="1"/>
        </link>
        <link from="289207651#0_0" via="" to="289207651#1_0">
            <approaching id="vehicle_1" impatience="0.01" arrivalTime="2.60" leaveTime="2.97" arrivalSpeed="13.89" arrivalSpeedBraking="13.89" leaveSpeed="13.89" willPass="1"/>
        </link>
    </timestep>
    <timestep id="3.80">
        <link from="23603261#4_0" via="" to="23602742_0">
            <approaching id="vehicle_0" impatience="0.00" arrivalTime="10.52" leaveTime="11.71" arrivalSpeed="8.33" arrivalSpeedBraking="8.33" leaveSpeed="8.33" willPass="1"/>
        </link>
        <link from="289207651#0_0" via="" to="289207651#1_0">
            <approaching id="vehicle_1" impatience="0.01" arrivalTime="2.60" leaveTime="2.97" arrivalSpeed="13.89" arrivalSpeedBraking="13.89" leaveSpeed="13.89" willPass="1"/>
        </link>
    </timestep>
    <timestep id="3.90">
        <link from="23603261#4_0" via="" to="23602742_0">
            <approaching id="vehicle_0" impatience="0.00" arrivalTime="10.52" leaveTime="11.71" arrivalSpeed="8.33" arrivalSpeedBraking="8.33" leaveSpeed="8.33" willPass="1"/>
        </link>
        <link from="289207651#0_0" via="" to="289207651#1_0">
            <approaching id="vehicle_1" impatience="0.01" arrivalTime="2.60" leaveTime="2.97" arrivalSpeed="13.89" arrivalSpeedBraking="13.89" leaveSpeed="13.89" willPass="1"/>
        </link>
    </timestep>
    <timestep id="4.00">
        <link from="23603261#4_0" via="" to="23602742_0">
            <approaching id="vehicle_0" impatience="0.00" arrivalTime="10.52" leaveTime="11.71" arrivalSpeed="8.33" arrivalSpeedBraking="8.33" leaveSpeed="8.33" willPass="1"/>
        </link>
        <link from="289207651#0_0" via="" to="289207651#1_0">
            <approaching id="vehicle_1" impatience="0.01" arrivalTime="2.60" leaveTime="2.97" arrivalSpeed="13.89" arrivalSpeedBraking="13.89" leaveSpeed="13.89" willPass="1"/>
        </link>
    </timestep>
    <timestep id="4.10">
        <link from="23603261#4_0" via="" to="23602742_0">
            <approaching id="vehicle_0" impatience="0.00" arrivalTime="10.52" leaveTime="11.71" arrivalSpeed="8.33" arrivalSpeedBraking="8.33" leaveSpeed="8.33" willPass="1"/>
        </link>
        <link from="289207651#0_0" via="" to="289207651#1_0">
            <approaching id="vehicle_1" impatience="0.01" arrivalTime="2.60" leaveTime="2.97" arrivalSpeed="13.89" arrivalSpeedBraking="13.89" leaveSpeed="13.89" willPass="1"/>
        </link>
    </timestep>
    <timestep id="4.20">
        <link from="23603261#4_0" via="" to="23602742_0">
            <approaching id="vehicle_0" impatience="0.00" arrivalTime="10.52" leaveTime="11.71" arrivalSpeed="8.33" arrivalSpeedBraking="8.33" leaveSpeed="8.33" willPass="1"/>
        </link>
        <link from="289207651#0_0" via="" to="289207651#1_0">
            <approaching id="vehicle_1" impatience="0.01" arrivalTime="2.60" leaveTime="2.97" arrivalSpeed="13.89" arrivalSpeedBraking="13.89" leaveSpeed="13.89" willPass="1"/>
        </link>
    </timestep>
    <timestep id="4.30">
        <link from="23603261#4_0" via="" to="23602742_0">
            <approaching id="vehicle_0" impatience="0.00" arrivalTime="10.52" leaveTime="11.71" arrivalSpeed="8.33" arrivalSpeedBraking="8.33" leaveSpeed="8.33" willPass="1"/>
        </link>
        <link from="289207651#0_0" via="" to="289207651#1_0">
            <approaching id="vehicle_1" impatience="0.01" arrivalTime="2.60" leaveTime="2.97" arrivalSpeed="13.89" arrivalSpeedBraking="13.89" leaveSpeed="13.89" willPass="1"/>
        </link>
    </timestep>
    <timestep id="4.40">
        <link from="23603261#4_0" via="" to="23602742_0">
            <approaching id="vehicle_0" impatience="0.00" arrivalTime="10.52" leaveTime="11.71" arrivalSpeed="8.33" arrivalSpeedBraking="8.33" leaveSpeed="8.33" willPass="1"/>
        </link>
        <link from="289207651#0_0" via="" to="289207651#1_0">
            <approaching id="vehicle_1" impatience="0.01" arrivalTime="2.60" leaveTime="2.97" arrivalSpeed="13.89" arrivalSpeedBraking="13.89" leaveSpeed="13.89" willPass="1"/>
        </link>
    </timestep>
    <timestep id="4.50">
        <link from="23603261#4_0" via="" to="23602742_0">
            <approaching id="vehicle_0" impatience="0.00" arrivalTime="10.52" leaveTime="11.71" arrivalSpeed="8.33" arrivalSpeedBraking="8.33" leaveSpeed="8.33" willPass="1"/>
        </link>
        <link from="289207651#0_0" via="" to="289207651#1_0">
            <approaching id="vehicle_1" impatience="0.01" arrivalTime="2.60" leaveTime="2.97" arrivalSpeed="13.89" arrivalSpeedBraking="13.89" leaveSpeed="13.89" willPass="1"/>
        </link>
    </timestep>
    <timestep id="4.60">
        <link from="23603261#4_0" via="" to="23602742_0">
            <approaching id="vehicle_0" impatience="0.00" arrivalTime="10.52" leaveTime="11.71" arrivalSpeed="8.33" arrivalSpeedBraking="8.33" leaveSpeed="8.33" willPass="1"/>
        </link>
        <link from="289207651#0_0" via="" to="289207651#1_0">
            <approaching id="vehicle_1" impatience="0.02" arrivalTime="2.60" leaveTime="2.97" arrivalSpeed="13.89" arrivalSpeedBraking="13.89" leaveSpeed="13.89" willPass="1"/>
        </link>
    </timestep>
    <timestep id="4.70">
        <link from="23603261#4_0" via="" to="23602742_0">
            <approaching id="vehicle_0" impatience="0.00" arrivalTime="10.52" leaveTime="11.71" arrivalSpeed="8.33" arrivalSpeedBraking="8.33" leaveSpeed="8.33" willPass="1"/>
        </link>
        <link from="289207651#0_0" via="" to="289207651#1_0">
            <approaching id="vehicle_1" impatience="0.02" arrivalTime="2.60" leaveTime="2.97" arrivalSpeed="13.89" arrivalSpeedBraking="13.89" leaveSpeed="13.89" willPass="1"/>
        </link>
    </timestep>
    <timestep id="4.80">
        <link from="23603261#4_0" via="" to="23602742_0">
            <approaching id="vehicle_0" impatience="0.00" arrivalTime="10.52" leaveTime="11.71" arrivalSpeed="8.33" arrivalSpeedBraking="8.33" leaveSpeed="8.33" willPass="1"/>
        </link>
        <link from="289207651#0_0" via="" to="289207651#1_0">
            <approaching id="vehicle_1" impatience="0.02" arrivalTime="2.60" leaveTime="2.97" arrivalSpeed="13.89" arrivalSpeedBraking="13.89" leaveSpeed="13.89" willPass="1"/>
        </link>
    </timestep>
    <timestep id="4.90">
        <link from="23603261#4_0" via="" to="23602742_0">
            <approaching id="vehicle_0" impatience="0.00" arrivalTime="10.52" leaveTime="11.71" arrivalSpeed="8.33" arrivalSpeedBraking="8.33" leaveSpeed="8.33" willPass="1"/>
        </link>
        <link from="289207651#0_0" via="" to="289207651#1_0">
            <approaching id="vehicle_1" impatience="0.02" arrivalTime="2.60" leaveTime="2.97" arrivalSpeed="13.89" arrivalSpeedBraking="13.89" leaveSpeed="13.89" willPass="1"/>
        </link>
    </timestep>
    <timestep id="5.00">
        <link from="23603261#4_0" via="" to="23602742_0">
            <approaching id="vehicle_0" impatience="0.00" arrivalTime="10.52" leaveTime="11.71" arrivalSpeed="8.33" arrivalSpeedBraking="8.33" leaveSpeed="8.33" willPass="1"/>
        </link>
        <link from="289207651#0_0" via="" to="289207651#1_0">
            <approaching id="vehicle_1" impatience="0.02" arrivalTime="2.60" leaveTime="2.97" arrivalSpeed="13.89" arrivalSpeedBraking="13.89" leaveSpeed="13.89" willPass="1"/>
        </link>
    </timestep>
    <timestep id="5.10">
        <link from="23603261#4_0" via="" to="23602742_0">
            <approaching id="vehicle_0" impatience="0.00" arrivalTime="10.52" leaveTime="11.71" arrivalSpeed="8.33" arrivalSpeedBraking="8.33" leaveSpeed="8.33" willPass="1"/>
        </link>
        <link from="289207651#0_0" via="" to="289207651#1_0">