<?xml version="1.0" encoding="UTF-8"?>

<routes xmlns:xsi="http://www.w3.org/2001/XMLSchema-instance" xsi:noNamespaceSchemaLocation="http://sumo.dlr.de/xsd/routes_file.xsd">
    <vType id="t1" sigma="0" scale="1"/>
    <vType id="t2" sigma="0" scale="2"/>
    <route id="r0" edges="SC CN"/>
    <vehicle id="a" type="t1" depart="0" route="r0"/>
    <vehicle id="b" type="t2" depart="0" route="r0"/>
</routes>
