<additional xmlns:xsi="http://www.w3.org/2001/XMLSchema-instance" xsi:noNamespaceSchemaLocation="http://sumo.dlr.de/xsd/additional_file.xsd">

    <!-- missing end position -->
    <trainStop id="trainStop_01" lane="center1_1" startPos="35" lines="line1 line2" name="trainStop" friendlyPos="false"/>

    <!-- non valid end position (dummy) -->
    <trainStop id="trainStop_02" lane="center1_1" startPos="35" endPos="dummyEndPos" lines="line1 line2" name="trainStop" friendlyPos="false"/>

    <!-- non valid end position (overpassing lane) -->
    <trainStop id="trainStop_03" lane="center1_1" startPos="35" endPos="40000" lines="line1 line2" name="trainStop" friendlyPos="false"/>

    <!-- non valid end position (<startPos) -->
    <trainStop id="trainStop_04" lane="center1_1" startPos="35" endPos="25" lines="line1 line2" name="trainStop" friendlyPos="false"/>

    <!-- valid end position -->
    <trainStop id="trainStop_05" lane="center1_1" startPos="35" endPos="55" lines="line1 line2" name="trainStop" friendlyPos="false"/>

    <!-- valid end position (Negative)-->
    <trainStop id="trainStop_06" lane="center1_1" startPos="35" endPos="-5" lines="line1 line2" name="trainStop" friendlyPos="false"/>

</additional>
