<?xml version="1.0" encoding="UTF-8"?>

<!-- generated on 2022-10-13 21:14:16 by Eclipse SUMO netconvert Version v1_14_1+1693-786c04c
This data file and the accompanying materials
are made available under the terms of the Eclipse Public License v2.0
which accompanies this distribution, and is available at
http://www.eclipse.org/legal/epl-v20.html
This file may also be made available under the following Secondary
Licenses when the conditions for such availability set forth in the Eclipse
Public License 2.0 are satisfied: GNU General Public License, version 2
or later which is available at
https://www.gnu.org/licenses/old-licenses/gpl-2.0-standalone.html
SPDX-License-Identifier: EPL-2.0 OR GPL-2.0-or-later
<configuration xmlns:xsi="http://www.w3.org/2001/XMLSchema-instance" xsi:noNamespaceSchemaLocation="http://sumo.dlr.de/xsd/netconvertConfiguration.xsd">

    <input>
        <osm-files value="osm.xml"/>
    </input>

    <output>
        <write-license value="true"/>
        <output-file value="net.net.xml"/>
        <ptstop-output value="additional.xml"/>
        <ptline-output value="ptlines.xml"/>
    </output>

    <projection>
        <proj.utm value="true"/>
    </projection>

    <junctions>
        <no-internal-links value="true"/>
    </junctions>

    <report>
        <xml-validation value="never"/>
    </report>

</configuration>
-->

<net version="1.9" junctionCornerDetail="5" limitTurnSpeed="5.50" xmlns:xsi="http://www.w3.org/2001/XMLSchema-instance" xsi:noNamespaceSchemaLocation="http://sumo.dlr.de/xsd/net_file.xsd">

    <location netOffset="-367891.74,-5678843.31" convBoundary="0.00,0.00,1852.94,424.88" origBoundary="7.103256,51.239083,7.148176,51.255803" projParameter="+proj=utm +zone=32 +ellps=WGS84 +datum=WGS84 +units=m +no_defs"/>

    <type id="highway.bridleway" priority="1" numLanes="1" speed="2.78" allow="pedestrian" oneway="1" width="2.00"/>
    <type id="highway.bus_guideway" priority="1" numLanes="1" speed="27.78" allow="bus" oneway="1"/>
    <type id="highway.cycleway" priority="1" numLanes="1" speed="5.56" allow="bicycle" oneway="0" width="1.00"/>
    <type id="highway.footway" priority="1" numLanes="1" speed="2.78" allow="pedestrian" oneway="1" width="2.00"/>
    <type id="highway.ford" priority="1" numLanes="1" speed="2.78" allow="army" oneway="0"/>
    <type id="highway.living_street" priority="2" numLanes="1" speed="2.78" disallow="tram rail_urban rail rail_electric rail_fast ship" oneway="0"/>
    <type id="highway.motorway" priority="14" numLanes="2" speed="39.44" allow="private emergency authority army vip passenger hov taxi bus coach delivery truck trailer motorcycle evehicle custom1 custom2" oneway="1"/>
    <type id="highway.motorway_link" priority="9" numLanes="1" speed="22.22" allow="private emergency authority army vip passenger hov taxi bus coach delivery truck trailer motorcycle evehicle custom1 custom2" oneway="1"/>
    <type id="highway.path" priority="1" numLanes="1" speed="5.56" allow="pedestrian bicycle" oneway="0" width="2.00"/>
    <type id="highway.pedestrian" priority="1" numLanes="1" speed="2.78" allow="pedestrian" oneway="1" width="2.00"/>
    <type id="highway.primary" priority="12" numLanes="2" speed="27.78" disallow="tram rail_urban rail rail_electric rail_fast ship" oneway="0"/>
    <type id="highway.primary_link" priority="7" numLanes="1" speed="22.22" disallow="tram rail_urban rail rail_electric rail_fast ship" oneway="0"/>
    <type id="highway.raceway" priority="15" numLanes="2" speed="83.33" allow="vip" oneway="0"/>
    <type id="highway.residential" priority="3" numLanes="1" speed="13.89" disallow="tram rail_urban rail rail_electric rail_fast ship" oneway="0"/>
    <type id="highway.secondary" priority="11" numLanes="1" speed="27.78" disallow="tram rail_urban rail rail_electric rail_fast ship" oneway="0"/>
    <type id="highway.secondary_link" priority="6" numLanes="1" speed="22.22" disallow="tram rail_urban rail rail_electric rail_fast ship" oneway="0"/>
    <type id="highway.service" priority="1" numLanes="1" speed="5.56" allow="pedestrian delivery bicycle" oneway="0"/>
    <type id="highway.stairs" priority="1" numLanes="1" speed="1.39" allow="pedestrian" oneway="1" width="2.00"/>
    <type id="highway.step" priority="1" numLanes="1" speed="1.39" allow="pedestrian" oneway="1" width="2.00"/>
    <type id="highway.steps" priority="1" numLanes="1" speed="1.39" allow="pedestrian" oneway="1" width="2.00"/>
    <type id="highway.tertiary" priority="10" numLanes="1" speed="22.22" disallow="tram rail_urban rail rail_electric rail_fast ship" oneway="0"/>
    <type id="highway.tertiary_link" priority="5" numLanes="1" speed="22.22" disallow="tram rail_urban rail rail_electric rail_fast ship" oneway="0"/>
    <type id="highway.track" priority="1" numLanes="1" speed="5.56" allow="pedestrian motorcycle moped bicycle" oneway="0"/>
    <type id="highway.trunk" priority="13" numLanes="2" speed="27.78" disallow="pedestrian bicycle tram rail_urban rail rail_electric rail_fast ship" oneway="0"/>
    <type id="highway.trunk_link" priority="8" numLanes="1" speed="22.22" disallow="pedestrian bicycle tram rail_urban rail rail_electric rail_fast ship" oneway="0"/>
    <type id="highway.unclassified" priority="4" numLanes="1" speed="13.89" disallow="tram rail_urban rail rail_electric rail_fast ship" oneway="0"/>
    <type id="highway.unsurfaced" priority="1" numLanes="1" speed="8.33" disallow="tram rail_urban rail rail_electric rail_fast ship" oneway="0"/>
    <type id="railway.highspeed" priority="21" numLanes="1" speed="69.44" allow="rail_fast" oneway="1"/>
    <type id="railway.light_rail" priority="19" numLanes="1" speed="27.78" allow="rail_urban" oneway="1"/>
    <type id="railway.preserved" priority="16" numLanes="1" speed="27.78" allow="rail" oneway="1"/>
    <type id="railway.rail" priority="20" numLanes="1" speed="44.44" allow="rail" oneway="1"/>
    <type id="railway.subway" priority="18" numLanes="1" speed="27.78" allow="rail_urban" oneway="1"/>
    <type id="railway.tram" priority="17" numLanes="1" speed="13.89" allow="tram" oneway="1"/>

    <edge id="-133902558#0" from="1473408881" to="1473408871" priority="1" type="highway.service" shape="732.64,305.39 664.27,315.11 654.30,313.39 599.74,304.13">
        <lane id="-133902558#0_0" index="0" allow="pedestrian delivery bicycle" speed="5.56" length="134.52" shape="728.16,307.64 664.25,316.72 654.03,314.97 599.47,305.71"/>
    </edge>
    <edge id="-133902558#1" from="1473408506" to="1473408881" priority="1" type="highway.service" shape="87.24,0.00 59.94,22.36 0.00,70.73 20.08,95.30 109.59,204.77 130.05,216.65 147.61,222.63 176.64,228.88 233.87,232.48 297.71,236.17 334.89,247.39 386.14,256.95 395.74,254.15 402.40,251.00 425.16,260.92 477.45,271.46 520.75,270.46 576.32,263.70 595.08,261.41 647.35,255.70 720.84,253.56 744.82,251.56 748.63,254.25 755.48,302.05 732.64,305.39">
        <lane id="-133902558#1_0" index="0" allow="pedestrian delivery bicycle" speed="5.56" length="1009.54" shape="88.25,1.24 60.95,23.60 2.26,70.97 21.32,94.28 110.65,203.53 130.71,215.19 148.04,221.09 176.86,227.29 233.97,230.89 297.99,234.58 335.27,245.83 386.06,255.31 395.17,252.65 402.37,249.25 425.64,259.39 477.59,269.86 520.63,268.87 576.13,262.11 594.90,259.82 647.24,254.10 720.75,251.96 745.26,249.92 750.12,253.34 757.29,303.40 737.46,306.30"/>
    </edge>
    <edge id="-133902561" from="1473408881" to="5273889532" priority="1" type="highway.service" shape="732.64,305.39 736.40,335.23 730.29,336.90 658.24,333.42 598.72,322.90">
        <lane id="-133902561_0" index="0" allow="pedestrian delivery bicycle" speed="5.56" length="168.99" shape="734.82,309.90 738.16,336.41 730.46,338.51 658.07,335.01 598.44,324.47"/>
    </edge>
    <edge id="-24496906#0" from="5267790184" to="49762157" priority="3" type="highway.residential" shape="967.58,331.73 964.58,320.70 960.06,311.30 958.66,309.01">
        <lane id="-24496906#0_0" index="0" disallow="tram rail_urban rail rail_electric rail_fast ship" speed="13.89" length="24.54" shape="966.00,332.00 963.08,321.26 958.66,312.07 957.29,309.85"/>
    </edge>
    <edge id="-24496906#1" from="6318744" to="5267790184" priority="3" type="highway.residential">
        <lane id="-24496906#1_0" index="0" disallow="tram rail_urban rail rail_electric rail_fast ship" speed="13.89" length="7.35" shape="965.96,331.87 965.91,331.68"/>
    </edge>
    <edge id="-24555213#0" from="8758525728" to="931635871" priority="3" type="highway.residential">
        <lane id="-24555213#0_0" index="0" disallow="tram rail_urban rail rail_electric rail_fast ship" speed="13.89" length="72.20" shape="1335.92,234.57 1356.91,173.92"/>
    </edge>
    <edge id="-24555213#1" from="2223216071" to="8758525728" priority="3" type="highway.residential">
        <lane id="-24555213#1_0" index="0" disallow="tram rail_urban rail rail_electric rail_fast ship" speed="13.89" length="21.45" shape="1328.82,254.85 1334.27,239.30"/>
    </edge>
    <edge id="-24555213#2" from="266994409" to="2223216071" priority="3" type="highway.residential">
        <lane id="-24555213#2_0" index="0" disallow="tram rail_urban rail rail_electric rail_fast ship" speed="13.89" length="3.32" shape="1328.10,256.94 1328.17,256.76"/>
    </edge>
    <edge id="-24555213#3" from="2223216070" to="266994409" priority="3" type="highway.residential" shape="1313.87,295.29 1318.06,287.50 1328.63,260.04">
        <lane id="-24555213#3_0" index="0" disallow="tram rail_urban rail rail_electric rail_fast ship" speed="13.89" length="38.28" shape="1313.64,292.34 1316.60,286.83 1325.17,264.56"/>
    </edge>
    <edge id="-24555213#4" from="268438092" to="2223216070" priority="3" type="highway.residential">
        <lane id="-24555213#4_0" index="0" disallow="tram rail_urban rail rail_electric rail_fast ship" speed="13.89" length="9.23" shape="1306.91,301.40 1310.66,296.72"/>
    </edge>
    <edge id="-24695915#0" from="2223216050" to="268438093" priority="3" type="highway.residential">
        <lane id="-24695915#0_0" index="0" disallow="tram rail_urban rail rail_electric rail_fast ship" speed="13.89" length="4.18" shape="1286.45,330.48 1287.42,329.23"/>
    </edge>
    <edge id="-24695915#1" from="931635870" to="2223216050" priority="3" type="highway.residential">
        <lane id="-24695915#1_0" index="0" disallow="tram rail_urban rail rail_electric rail_fast ship" speed="13.89" length="80.06" shape="1240.74,395.53 1283.52,334.44"/>
    </edge>
    <edge id="-24695916" from="268438093" to="268438092" priority="3" type="highway.residential">
        <lane id="-24695916_0" index="0" disallow="tram rail_urban rail rail_electric rail_fast ship" speed="13.89" length="33.84" shape="1287.37,329.29 1306.71,301.65"/>
    </edge>
    <edge id="-253940357" from="2598039976" to="2598040090" priority="1" type="highway.service" shape="1234.90,324.86 1226.44,338.16 1224.03,345.53 1222.34,351.91 1205.86,374.26">
        <lane id="-253940357_0" index="0" allow="pedestrian delivery bicycle" speed="5.56" length="57.89" shape="1236.25,325.72 1227.89,338.85 1225.57,345.99 1223.81,352.61 1209.95,371.41"/>
    </edge>
    <edge id="-253946177" from="2598077083" to="2598077208" priority="1" type="highway.service" shape="974.70,292.28 988.22,286.26 1002.15,279.79 1023.85,274.59 1033.96,323.50">
        <lane id="-253946177_0" index="0" allow="pedestrian delivery bicycle" speed="5.56" length="102.42" shape="974.05,290.82 987.56,284.80 1001.62,278.27 1025.08,272.64 1034.58,318.62"/>
    </edge>
    <edge id="-307459757#0" from="2511341204" to="3126150284" priority="12" type="highway.primary" shape="378.19,412.86 351.84,407.22 319.40,398.84 287.86,389.88 261.79,381.87 237.17,372.89 211.64,361.65 189.80,350.53 166.86,336.49">
        <lane id="-307459757#0_0" index="0" disallow="tram rail_urban rail rail_electric rail_fast ship" speed="13.89" length="226.02" shape="377.86,414.42 351.47,408.78 318.98,400.39 287.41,391.41 261.28,383.38 236.57,374.37 210.96,363.10 189.02,351.93 166.03,337.85"/>
        <param key="ref" value="B 7"/>
    </edge>
    <edge id="-307459757#1" from="2511338318" to="2511341204" priority="12" type="highway.primary" shape="799.25,374.31 777.21,378.46 690.67,396.31 616.38,411.26 580.60,418.55 549.58,422.82 510.44,424.88 469.66,424.11 418.66,418.78 396.72,415.80 378.19,412.86">
        <lane id="-307459757#1_0" index="0" disallow="tram rail_urban rail rail_electric rail_fast ship" speed="13.89" length="426.55" shape="799.41,375.91 777.52,380.03 690.99,397.88 616.70,412.83 580.87,420.13 549.74,424.41 510.47,426.48 469.56,425.71 418.47,420.37 396.49,417.38 377.94,414.44"/>
        <param key="ref" value="B 7"/>
    </edge>
    <edge id="-307459757#2" from="2585429442" to="2511338318" priority="12" type="highway.primary">
        <lane id="-307459757#2_0" index="0" disallow="tram rail_urban rail rail_electric rail_fast ship" speed="13.89" length="10.10" shape="807.04,374.32 799.71,375.85"/>
        <param key="ref" value="B 7"/>
    </edge>
    <edge id="-307459757#3" from="5267790186" to="2585429442" priority="12" type="highway.primary">
        <lane id="-307459757#3_0" index="0" disallow="tram rail_urban rail rail_electric rail_fast ship" speed="13.89" length="151.07" shape="954.82,342.90 811.95,373.28"/>
        <param key="ref" value="B 7"/>
    </edge>
    <edge id="-307459757#4" from="6318744" to="5267790186" priority="12" type="highway.primary">
        <lane id="-307459757#4_0" index="0" disallow="tram rail_urban rail rail_electric rail_fast ship" speed="13.89" length="12.69" shape="962.52,341.14 959.66,341.81"/>
        <param key="ref" value="B 7"/>
    </edge>
    <edge id="-371816981" from="3753586310" to="3753586308" priority="1" type="highway.service" shape="770.28,275.69 764.62,242.83 763.48,236.53">
        <lane id="-371816981_0" index="0" allow="pedestrian delivery bicycle" speed="5.56" length="39.74" shape="768.70,275.96 763.05,243.11 762.75,241.47"/>
    </edge>
    <edge id="-5980164#0" from="2598077208" to="6318744" priority="12" type="highway.primary">
        <lane id="-5980164#0_0" index="0" disallow="tram rail_urban rail rail_electric rail_fast ship" speed="13.89" length="66.28" shape="1029.76,326.07 976.49,337.92"/>
        <param key="ref" value="B 7"/>
    </edge>
    <edge id="-5980164#1" from="7997476768" to="2598077208" priority="12" type="highway.primary" shape="1169.01,348.52 1157.18,340.62 1146.13,334.33 1132.38,328.50 1109.25,322.91 1087.48,319.21 1069.65,318.86 1053.11,320.11 1033.96,323.50">
        <lane id="-5980164#1_0" index="0" disallow="tram rail_urban rail rail_electric rail_fast ship" speed="13.89" length="141.62" shape="1164.29,347.29 1156.34,341.98 1145.42,335.76 1131.88,330.03 1108.92,324.48 1087.33,320.81 1069.69,320.46 1053.31,321.70 1038.77,324.27"/>
        <param key="ref" value="B 7"/>
    </edge>
    <edge id="-5980164#2" from="2598040090" to="7997476768" priority="12" type="highway.primary">
        <lane id="-5980164#2_0" index="0" disallow="tram rail_urban rail rail_electric rail_fast ship" speed="13.89" length="44.95" shape="1201.15,372.93 1171.97,352.54"/>
        <param key="ref" value="B 7"/>
    </edge>
    <edge id="-5980164#3" from="466995852" to="2598040090" priority="12" type="highway.primary" shape="1228.67,390.89 1222.71,386.52 1205.86,374.26">
        <lane id="-5980164#3_0" index="0" disallow="tram rail_urban rail rail_electric rail_fast ship" speed="13.89" length="28.23" shape="1227.61,392.10 1221.76,387.82 1208.73,378.33"/>
        <param key="ref" value="B 7"/>
    </edge>
    <edge id="-5980164#4" from="931635870" to="466995852" priority="12" type="highway.primary">
        <lane id="-5980164#4_0" index="0" disallow="tram rail_urban rail rail_electric rail_fast ship" speed="13.89" length="14.14" shape="1236.64,398.52 1227.86,392.28"/>
        <param key="ref" value="B 7"/>
    </edge>
    <edge id="-5980276#0" from="3753531842" to="7232348" priority="3" type="highway.residential" shape="588.61,243.26 580.12,240.66 569.12,239.79 554.55,239.32 544.29,238.82 525.93,234.31 515.53,230.82 500.82,224.64 484.00,218.30 476.43,216.00 452.92,211.01 429.95,204.64 406.88,196.72 383.05,187.29 346.70,169.60 316.57,155.92 313.43,154.60 311.45,152.84">
        <lane id="-5980276#0_0" index="0" disallow="tram rail_urban rail rail_electric rail_fast ship" speed="13.89" length="293.93" shape="579.02,242.17 569.03,241.39 554.48,240.92 544.06,240.41 525.48,235.85 514.96,232.32 500.23,226.13 483.48,219.81 476.03,217.55 452.54,212.56 429.48,206.17 406.32,198.23 382.40,188.75 346.02,171.04 315.91,157.38 312.57,155.97 310.39,154.04"/>
    </edge>
    <edge id="-5980276#1" from="3753586308" to="3753531842" priority="3" type="highway.residential" shape="763.48,236.53 745.63,239.95 717.06,243.62 674.50,243.61 640.44,244.86 608.30,247.74 597.95,246.14 588.61,243.26">
        <lane id="-5980276#1_0" index="0" disallow="tram rail_urban rail rail_electric rail_fast ship" speed="13.89" length="176.13" shape="759.14,238.99 745.88,241.53 717.16,245.22 674.52,245.21 640.54,246.46 608.24,249.35 598.19,247.79"/>
    </edge>
    <edge id="-5980276#2" from="7232514" to="3753586308" priority="3" type="highway.residential">
        <lane id="-5980276#2_0" index="0" disallow="tram rail_urban rail rail_electric rail_fast ship" speed="13.89" length="155.17" shape="909.37,212.15 768.40,237.28"/>
    </edge>
    <edge id="-5980276#3" from="2223216077" to="7232514" priority="3" type="highway.residential" shape="1264.09,186.09 1176.28,167.38 1164.53,166.88 1069.57,182.35 1044.14,189.65 916.24,209.30">
        <lane id="-5980276#3_0" index="0" disallow="tram rail_urban rail rail_electric rail_fast ship" speed="13.89" length="353.61" shape="1261.44,187.16 1176.08,168.97 1164.62,168.48 1069.92,183.92 1044.48,191.21 923.61,209.78"/>
    </edge>
    <edge id="-5980276#4" from="8758525726" to="2223216077" priority="3" type="highway.residential" shape="1308.39,178.89 1267.85,185.99 1264.09,186.09">
        <lane id="-5980276#4_0" index="0" disallow="tram rail_urban rail rail_electric rail_fast ship" speed="13.89" length="44.92" shape="1304.87,181.13 1268.01,187.59 1266.02,187.64"/>
    </edge>
    <edge id="-5980276#5" from="931635871" to="8758525726" priority="3" type="highway.residential">
        <lane id="-5980276#5_0" index="0" disallow="tram rail_urban rail rail_electric rail_fast ship" speed="13.89" length="52.73" shape="1355.11,171.83 1309.93,180.23"/>
    </edge>
    <edge id="-814553236" from="7608805446" to="7608805438" priority="1" type="highway.service" shape="825.72,318.70 852.24,315.01 893.60,308.05 903.99,305.69 913.35,299.49 915.66,296.84 918.03,290.66 919.81,286.95 930.61,276.74">
        <lane id="-814553236_0" index="0" allow="pedestrian delivery bicycle" speed="5.56" length="119.71" shape="825.50,317.12 852.00,313.42 893.29,306.48 903.35,304.20 912.29,298.27 914.27,296.00 916.56,290.02 918.50,285.99 926.02,278.88"/>
    </edge>
    <edge id="-857838695" from="7997476768" to="7997476767" priority="1" type="highway.service">
        <lane id="-857838695_0" index="0" allow="pedestrian delivery bicycle" speed="5.56" length="34.78" shape="1170.45,343.74 1187.90,319.28"/>
    </edge>
    <edge id="-9670286#0" from="7608805438" to="7232514" priority="3" type="highway.residential" shape="930.61,276.74 927.64,272.81 926.01,269.02 925.02,265.52 916.24,209.30">
        <lane id="-9670286#0_0" index="0" disallow="tram rail_urban rail rail_electric rail_fast ship" speed="13.89" length="69.59" shape="926.70,274.22 926.25,273.62 924.50,269.56 923.46,265.86 915.78,216.73"/>
    </edge>
    <edge id="-9670286#1" from="7232515" to="7608805438" priority="3" type="highway.residential">
        <lane id="-9670286#1_0" index="0" disallow="tram rail_urban rail rail_electric rail_fast ship" speed="13.89" length="8.09" shape="934.77,283.86 932.60,281.40"/>
    </edge>
    <edge id="133902558#0" from="1473408871" to="1473408881" priority="1" type="highway.service" shape="599.74,304.13 654.30,313.39 664.27,315.11 732.64,305.39">
        <lane id="133902558#0_0" index="0" allow="pedestrian delivery bicycle" speed="5.56" length="134.52" shape="600.00,302.55 654.56,311.81 664.29,313.49 727.71,304.47"/>
    </edge>
    <edge id="133902558#1" from="1473408881" to="1473408506" priority="1" type="highway.service" shape="732.64,305.39 755.48,302.05 748.63,254.25 744.82,251.56 720.84,253.56 647.35,255.70 595.08,261.41 576.32,263.70 520.75,270.46 477.45,271.46 425.16,260.92 402.40,251.00 395.74,254.15 386.14,256.95 334.89,247.39 297.71,236.17 233.87,232.48 176.64,228.88 147.61,222.63 130.05,216.65 109.59,204.77 20.08,95.30 0.00,70.73 59.94,22.36 87.24,0.00">
        <lane id="133902558#1_0" index="0" allow="pedestrian delivery bicycle" speed="5.56" length="1009.54" shape="737.00,303.13 753.67,300.70 747.14,255.16 744.37,253.21 720.93,255.16 647.46,257.30 595.27,263.00 576.52,265.28 520.87,272.06 477.31,273.07 424.67,262.46 402.43,252.76 396.31,255.65 386.22,258.60 334.51,248.94 297.43,237.76 233.78,234.08 176.42,230.47 147.18,224.18 129.38,218.11 108.54,206.01 18.84,96.31 -2.26,70.50 58.93,21.11 86.23,-1.24"/>
    </edge>
    <edge id="133902561" from="5273889532" to="1473408881" priority="1" type="highway.service" shape="598.72,322.90 658.24,333.42 730.29,336.90 736.40,335.23 732.64,305.39">
        <lane id="133902561_0" index="0" allow="pedestrian delivery bicycle" speed="5.56" length="168.99" shape="599.00,321.32 658.42,331.83 730.11,335.29 734.64,334.05 731.65,310.30"/>
    </edge>
    <edge id="212481576" from="2223216050" to="2223244533" priority="1" type="highway.footway" spreadType="center" shape="1286.13,333.51 1271.48,321.50 1272.71,319.94">
        <lane id="212481576_0" index="0" allow="pedestrian" speed="2.78" length="20.92" width="2.00" shape="1282.47,330.51 1271.48,321.50 1272.62,320.06"/>
    </edge>
    <edge id="212481585" from="2223215979" to="2223216077" priority="1" type="highway.footway" spreadType="center" shape="1298.00,278.45 1264.22,248.08 1262.19,237.20 1253.49,231.87 1261.78,199.65 1264.09,186.09">
        <lane id="212481585_0" index="0" allow="pedestrian" speed="2.78" length="113.73" width="2.00" shape="1295.08,275.83 1264.22,248.08 1262.19,237.20 1253.49,231.87 1261.78,199.65 1263.31,190.68"/>
    </edge>
    <edge id="212481589#0" from="2223216082" to="2223215979" priority="1" type="highway.footway" spreadType="center">
        <lane id="212481589#0_0" index="0" allow="pedestrian" speed="2.78" length="8.71" width="2.00" shape="1298.48,285.09 1298.13,280.35"/>
    </edge>
    <edge id="212481589#1" from="2223215979" to="2223216080" priority="1" type="highway.footway" spreadType="center">
        <lane id="212481589#1_0" index="0" allow="pedestrian" speed="2.78" length="32.18" width="2.00" shape="1297.78,274.54 1296.40,249.30"/>
    </edge>
    <edge id="212481589#2" from="2223216080" to="2223216071" priority="1" type="highway.footway" spreadType="center">
        <lane id="212481589#2_0" index="0" allow="pedestrian" speed="2.78" length="35.17" width="2.00" shape="1299.06,247.29 1325.03,256.19"/>
    </edge>
    <edge id="212481596#0" from="2223216080" to="8758525727" priority="1" type="highway.footway" spreadType="center">
        <lane id="212481596#0_0" index="0" allow="pedestrian" speed="2.78" length="21.82" width="2.00" shape="1297.01,243.96 1302.19,227.97"/>
    </edge>
    <edge id="212481596#1" from="8758525727" to="8758525726" priority="1" type="highway.footway" spreadType="center" shape="1302.97,225.56 1308.18,209.45 1304.89,195.62 1308.39,178.89">
        <lane id="212481596#1_0" index="0" allow="pedestrian" speed="2.78" length="48.24" width="2.00" shape="1303.73,223.21 1308.18,209.45 1304.89,195.62 1307.29,184.12"/>
    </edge>
    <edge id="212487092" from="2223244533" to="3732549765" priority="1" type="highway.footway" spreadType="center">
        <lane id="212487092_0" index="0" allow="pedestrian" speed="2.78" length="9.15" width="2.00" shape="1272.81,319.83 1278.29,312.87"/>
    </edge>
    <edge id="212487093#0" from="2223244536" to="2223216082" priority="1" type="highway.footway" spreadType="center">
        <lane id="212487093#0_0" index="0" allow="pedestrian" speed="2.78" length="5.95" width="2.00" shape="1295.00,291.67 1297.17,288.96"/>
    </edge>
    <edge id="212487093#1" from="2223216082" to="2223216070" priority="1" type="highway.footway" spreadType="center">
        <lane id="212487093#1_0" index="0" allow="pedestrian" speed="2.78" length="17.29" width="2.00" shape="1300.68,288.24 1309.51,292.96"/>
    </edge>
    <edge id="24496906#0" from="49762157" to="5267790184" priority="3" type="highway.residential" shape="958.66,309.01 960.06,311.30 964.58,320.70 967.58,331.73">
        <lane id="24496906#0_0" index="0" disallow="tram rail_urban rail rail_electric rail_fast ship" speed="13.89" length="24.54" shape="960.02,308.17 961.47,310.53 966.09,320.14 969.09,331.16"/>
    </edge>
    <edge id="24496906#1" from="5267790184" to="6318744" priority="3" type="highway.residential">
        <lane id="24496906#1_0" index="0" disallow="tram rail_urban rail rail_electric rail_fast ship" speed="13.89" length="7.35" shape="969.00,330.84 969.05,331.03"/>
    </edge>
    <edge id="24555213#0" from="931635871" to="8758525728" priority="3" type="highway.residential">
        <lane id="24555213#0_0" index="0" disallow="tram rail_urban rail rail_electric rail_fast ship" speed="13.89" length="72.20" shape="1359.94,174.97 1338.95,235.62"/>
    </edge>
    <edge id="24555213#1" from="8758525728" to="2223216071" priority="3" type="highway.residential">
        <lane id="24555213#1_0" index="0" disallow="tram rail_urban rail rail_electric rail_fast ship" speed="13.89" length="21.45" shape="1337.29,240.36 1331.84,255.91"/>
    </edge>
    <edge id="24555213#2" from="2223216071" to="266994409" priority="3" type="highway.residential">
        <lane id="24555213#2_0" index="0" disallow="tram rail_urban rail rail_electric rail_fast ship" speed="13.89" length="3.32" shape="1331.16,257.90 1331.09,258.08"/>
    </edge>
    <edge id="24555213#3" from="266994409" to="2223216070" priority="3" type="highway.residential" shape="1328.63,260.04 1318.06,287.50 1313.87,295.29">
        <lane id="24555213#3_0" index="0" disallow="tram rail_urban rail rail_electric rail_fast ship" speed="13.89" length="38.28" shape="1328.16,265.71 1319.52,288.17 1316.46,293.86"/>
    </edge>
    <edge id="24555213#4" from="2223216070" to="268438092" priority="3" type="highway.residential">
        <lane id="24555213#4_0" index="0" disallow="tram rail_urban rail rail_electric rail_fast ship" speed="13.89" length="9.23" shape="1313.16,298.73 1309.40,303.40"/>
    </edge>
    <edge id="24695915#0" from="268438093" to="2223216050" priority="3" type="highway.residential">
        <lane id="24695915#0_0" index="0" disallow="tram rail_urban rail rail_electric rail_fast ship" speed="13.89" length="4.18" shape="1289.95,331.19 1288.98,332.44"/>
    </edge>
    <edge id="24695915#1" from="2223216050" to="931635870" priority="3" type="highway.residential">
        <lane id="24695915#1_0" index="0" disallow="tram rail_urban rail rail_electric rail_fast ship" speed="13.89" length="80.06" shape="1286.14,336.28 1243.36,397.36"/>
    </edge>
    <edge id="24695916" from="268438092" to="268438093" priority="3" type="highway.residential">
        <lane id="24695916_0" index="0" disallow="tram rail_urban rail rail_electric rail_fast ship" speed="13.89" length="33.84" shape="1309.34,303.49 1289.99,331.13"/>
    </edge>
    <edge id="252506599" from="2585429347" to="2585429357" priority="1" type="highway.footway" spreadType="center">
        <lane id="252506599_0" index="0" allow="pedestrian" speed="2.78" length="1.94" width="2.00" shape="805.42,340.27 805.79,342.18"/>
    </edge>
    <edge id="252506600" from="2585429405" to="2585429402" priority="1" type="highway.footway" spreadType="center" shape="807.42,355.02 808.09,352.73">
        <lane id="252506600_0" index="0" allow="pedestrian" speed="2.78" length="2.55" width="2.00" shape="807.65,354.22 808.09,352.73"/>
    </edge>
    <edge id="252506601" from="2585429423" to="2585429433" priority="1" type="highway.steps" spreadType="center">
        <lane id="252506601_0" index="0" allow="pedestrian" speed="1.39" length="12.22" width="2.00" shape="803.60,356.87 794.11,358.45"/>
    </edge>
    <edge id="252506604" from="2585429336" to="2585429349" priority="1" type="highway.steps" spreadType="center">
        <lane id="252506604_0" index="0" allow="pedestrian" speed="1.39" length="12.01" width="2.00" shape="802.01,339.82 791.13,341.64"/>
    </edge>
    <edge id="252506605" from="2585429347" to="2585429368" priority="1" type="highway.footway" spreadType="center" shape="805.42,340.27 805.87,342.63 803.61,343.00">
        <lane id="252506605_0" index="0" allow="pedestrian" speed="2.78" length="4.69" width="2.00" shape="805.42,340.27 805.87,342.63 805.71,342.66"/>
    </edge>
    <edge id="252506606" from="2585429400" to="2585429405" priority="1" type="highway.footway" spreadType="center" shape="805.43,352.57 807.98,352.10 809.40,354.72">
        <lane id="252506606_0" index="0" allow="pedestrian" speed="2.78" length="5.85" width="2.00" shape="807.72,352.15 807.98,352.10 809.04,354.07"/>
    </edge>
    <edge id="252506607" from="2585429442" to="5046101398" priority="1" type="highway.footway" spreadType="center">
        <lane id="252506607_0" index="0" allow="pedestrian" speed="2.78" length="4.77" width="2.00" shape="808.27,367.95 808.23,367.75"/>
    </edge>
    <edge id="253940345" from="2598039918" to="2598039906" priority="1" type="highway.steps" spreadType="center">
        <lane id="253940345_0" index="0" allow="pedestrian" speed="1.39" length="14.04" width="2.00" shape="1287.16,297.51 1278.39,290.06"/>
    </edge>
    <edge id="253940348" from="2598039957" to="2598039927" priority="1" type="highway.steps" spreadType="center">