<?xml version="1.0" encoding="UTF-8"?>

<!-- generated on 2022-06-02 13:12:22 by Eclipse SUMO netedit Version v1_13_0+0567-e439ae5985d
-->

<routes xmlns:xsi="http://www.w3.org/2001/XMLSchema-instance" xsi:noNamespaceSchemaLocation="http://sumo.dlr.de/xsd/routes_file.xsd">
    <!-- Vehicles, persons and containers (sorted by depart) -->
    <vehicle id="vehicle_0" depart="0.00">
        <route edges="gneE0 gneE1" color="yellow"/>
        <stop parkingArea="parkingAreaB" duration="60.00" triggered="person" parking="1"/>
        <stop parkingArea="parkingAreaB" duration="60.00" triggered="person" parking="1"/>
        <stop parkingArea="parkingAreaB" duration="60.00" triggered="person" parking="1" expected="personID1 personID2 personID3"/>
    </vehicle>
</routes>
