<?xml version="1.0" encoding="UTF-8"?>

<!-- generated on Tue 14 Jun 2016 04:33:32 PM CEST by Netedit Version dev-SVN-r20966
<?xml version="1.0" encoding="UTF-8"?>

<configuration xmlns:xsi="http://www.w3.org/2001/XMLSchema-instance" xsi:noNamespaceSchemaLocation="http://sumo.dlr.de/xsd/netedit.exeConfiguration.xsd">

    <input>
        <sumo-net-file value="/scr1/sumoI/sumo/tests/netconvert/import/XML/connection_guessing/ramps/4in3main2ramp/net.netconvert"/>
    </input>

    <output>
        <output-file value="/scr1/sumoI/sumo/tests/netconvert/import/XML/connection_guessing/ramps/4in3main2ramp/net.netconvert"/>
        <plain-output-prefix value="/scr1/sumoI/sumo/tests/netconvert/import/XML/connection_guessing/ramps/4in3main2ramp/input_plain"/>
    </output>

    <processing>
        <no-internal-links value="true"/>
        <no-turnarounds value="true"/>
        <offset.disable-normalization value="true"/>
        <lefthand value="false"/>
        <junctions.corner-detail value="0"/>
    </processing>

</configuration>
-->

<tlLogics version="0.27" xmlns:xsi="http://www.w3.org/2001/XMLSchema-instance" xsi:noNamespaceSchemaLocation="http://sumo.dlr.de/xsd/tllogic_file.xsd">
</tlLogics>
