<?xml version="1.0" encoding="UTF-8"?>

<!-- generated on 2023-02-06 16:18:26 by Eclipse SUMO netedit Version v1_15_0+2227-eb34d0f407a
<configuration xmlns:xsi="http://www.w3.org/2001/XMLSchema-instance" xsi:noNamespaceSchemaLocation="http://sumo.dlr.de/xsd/netconvertConfiguration.xsd">

    <input>
        <sumo-net-file value="C:\Users\SUMO-Test\.texttest\tmp\netedit.gui.06Feb161254.4152\netedit.gui\netelements\junctions\create\square_double\netedit.net.xml"/>
    </input>

    <output>
        <output-file value="C:\Users\SUMO-Test\.texttest\tmp\netedit.gui.06Feb161254.4152\netedit.gui\netelements\junctions\create\square_double\netedit.net.xml"/>
    </output>

    <processing>
        <offset.disable-normalization value="true"/>
    </processing>

    <junctions>
        <no-turnarounds value="true"/>
    </junctions>

    <netedit>
        <new-network value="false"/>
    </netedit>

    <visualisation>
        <gui-settings-file value="C:\Users\SUMO-Test\.texttest\tmp\netedit.gui.06Feb161254.4152\netedit.gui\netelements\junctions\create\square_double\gui-settings.xml"/>
        <window-size value="936, 697"/>
        <window-pos value="50,50"/>
        <gui-testing value="true"/>
        <gui-testing-debug value="true"/>
        <gui-testing-debug-gl value="true"/>
        <gui-testing.setting-output value="C:\Users\SUMO-Test\.texttest\tmp\netedit.gui.06Feb161254.4152\netedit.gui\netelements\junctions\create\square_double\guisettingsoutput.xml"/>
    </visualisation>

    <report>
        <no-warnings value="true"/>
        <error-log value="C:\Users\SUMO-Test\.texttest\tmp\netedit.gui.06Feb161254.4152\netedit.gui\netelements\junctions\create\square_double\log.txt"/>
    </report>

</configuration>
-->

<net version="1.16" junctionCornerDetail="5" limitTurnSpeed="5.50" xmlns:xsi="http://www.w3.org/2001/XMLSchema-instance" xsi:noNamespaceSchemaLocation="http://sumo.dlr.de/xsd/net_file.xsd">

    <location netOffset="0.00,0.00" convBoundary="20.00,30.00,50.00,70.00" origBoundary="10000000000.00,10000000000.00,-10000000000.00,-10000000000.00" projParameter="!"/>

    <edge id=":J0_0" function="internal">
        <lane id=":J0_0_0" index="0" speed="6.08" length="7.74" shape="23.20,71.60 21.10,71.30 19.60,70.40 18.70,68.90 18.40,66.80"/>
    </edge>
    <edge id=":J0_1" function="internal">
        <lane id=":J0_1_0" index="0" speed="3.90" length="2.58" shape="21.60,66.80 21.70,67.50 22.00,68.00 22.50,68.30 23.20,68.40"/>
    </edge>
    <edge id=":J1_0" function="internal">
        <lane id=":J1_0_0" index="0" speed="6.08" length="7.74" shape="51.60,66.80 51.30,68.90 50.40,70.40 48.90,71.30 46.80,71.60"/>
    </edge>
    <edge id=":J1_1" function="internal">
        <lane id=":J1_1_0" index="0" speed="3.90" length="2.58" shape="46.80,68.40 47.50,68.30 48.00,68.00 48.30,67.50 48.40,66.80"/>
    </edge>
    <edge id=":J2_0" function="internal">
        <lane id=":J2_0_0" index="0" speed="3.90" length="2.58" shape="48.40,33.20 48.30,32.50 48.00,32.00 47.50,31.70 46.80,31.60"/>
    </edge>
    <edge id=":J2_1" function="internal">
        <lane id=":J2_1_0" index="0" speed="6.08" length="7.74" shape="46.80,28.40 48.90,28.70 50.40,29.60 51.30,31.10 51.60,33.20"/>
    </edge>
    <edge id=":J3_0" function="internal">
        <lane id=":J3_0_0" index="0" speed="6.08" length="7.74" shape="18.40,33.20 18.70,31.10 19.60,29.60 21.10,28.70 23.20,28.40"/>
    </edge>
    <edge id=":J3_1" function="internal">
        <lane id=":J3_1_0" index="0" speed="3.90" length="2.58" shape="23.20,31.60 22.50,31.70 22.00,32.00 21.70,32.50 21.60,33.20"/>
    </edge>

    <edge id="-E0" from="J1" to="J0" priority="-1">
        <lane id="-E0_0" index="0" speed="13.89" length="23.60" shape="46.80,71.60 23.20,71.60"/>
    </edge>
    <edge id="-E1" from="J2" to="J1" priority="-1">
        <lane id="-E1_0" index="0" speed="13.89" length="33.60" shape="51.60,33.20 51.60,66.80"/>
    </edge>
    <edge id="-E2" from="J3" to="J2" priority="-1">
        <lane id="-E2_0" index="0" speed="13.89" length="23.60" shape="23.20,28.40 46.80,28.40"/>
    </edge>
    <edge id="-E3" from="J0" to="J3" priority="-1">
        <lane id="-E3_0" index="0" speed="13.89" length="33.60" shape="18.40,66.80 18.40,33.20"/>
    </edge>
    <edge id="E0" from="J0" to="J1" priority="-1">
        <lane id="E0_0" index="0" speed="13.89" length="23.60" shape="23.20,68.40 46.80,68.40"/>
    </edge>
    <edge id="E1" from="J1" to="J2" priority="-1">
        <lane id="E1_0" index="0" speed="13.89" length="33.60" shape="48.40,66.80 48.40,33.20"/>
    </edge>
    <edge id="E2" from="J2" to="J3" priority="-1">
        <lane id="E2_0" index="0" speed="13.89" length="23.60" shape="46.80,31.60 23.20,31.60"/>
    </edge>
    <edge id="E3" from="J3" to="J0" priority="-1">
        <lane id="E3_0" index="0" speed="13.89" length="33.60" shape="21.60,33.20 21.60,66.80"/>
    </edge>

    <junction id="J0" type="priority" x="20.00" y="70.00" incLanes="-E0_0 E3_0" intLanes=":J0_0_0 :J0_1_0" shape="23.20,73.20 23.20,66.80 16.80,66.80 17.51,70.36 18.40,71.60 19.64,72.49 21.24,73.02">
        <request index="0" response="00" foes="00" cont="0"/>
        <request index="1" response="00" foes="00" cont="0"/>
    </junction>
    <junction id="J1" type="priority" x="50.00" y="70.00" incLanes="-E1_0 E0_0" intLanes=":J1_0_0 :J1_1_0" shape="53.20,66.80 46.80,66.80 46.80,73.20 50.36,72.49 51.60,71.60 52.49,70.36 53.02,68.76">
        <request index="0" response="00" foes="00" cont="0"/>
        <request index="1" response="00" foes="00" cont="0"/>
    </junction>
    <junction id="J2" type="priority" x="50.00" y="30.00" incLanes="E1_0 -E2_0" intLanes=":J2_0_0 :J2_1_0" shape="46.80,33.20 53.20,33.20 52.49,29.64 51.60,28.40 50.36,27.51 48.76,26.98 46.80,26.80">
        <request index="0" response="00" foes="00" cont="0"/>
        <request index="1" response="00" foes="00" cont="0"/>
    </junction>
    <junction id="J3" type="priority" x="20.00" y="30.00" incLanes="-E3_0 E2_0" intLanes=":J3_0_0 :J3_1_0" shape="16.80,33.20 23.20,33.20 23.20,26.80 19.64,27.51 18.40,28.40 17.51,29.64 16.98,31.24">
        <request index="0" response="00" foes="00" cont="0"/>
        <request index="1" response="00" foes="00" cont="0"/>
    </junction>

    <connection from="-E0" to="-E3" fromLane="0" toLane="0" via=":J0_0_0" dir="l" state="M"/>
    <connection from="-E1" to="-E0" fromLane="0" toLane="0" via=":J1_0_0" dir="l" state="M"/>
    <connection from="-E2" to="-E1" fromLane="0" toLane="0" via=":J2_1_0" dir="l" state="M"/>
    <connection from="-E3" to="-E2" fromLane="0" toLane="0" via=":J3_0_0" dir="l" state="M"/>
    <connection from="E0" to="E1" fromLane="0" toLane="0" via=":J1_1_0" dir="r" state="M"/>
    <connection from="E1" to="E2" fromLane="0" toLane="0" via=":J2_0_0" dir="r" state="M"/>
    <connection from="E2" to="E3" fromLane="0" toLane="0" via=":J3_1_0" dir="r" state="M"/>
    <connection from="E3" to="E0" fromLane="0" toLane="0" via=":J0_1_0" dir="r" state="M"/>

    <connection from=":J0_0" to="-E3" fromLane="0" toLane="0" dir="l" state="M"/>
    <connection from=":J0_1" to="E0" fromLane="0" toLane="0" dir="r" state="M"/>
    <connection from=":J1_0" to="-E0" fromLane="0" toLane="0" dir="l" state="M"/>
    <connection from=":J1_1" to="E1" fromLane="0" toLane="0" dir="r" state="M"/>
    <connection from=":J2_0" to="E2" fromLane="0" toLane="0" dir="r" state="M"/>
    <connection from=":J2_1" to="-E1" fromLane="0" toLane="0" dir="l" state="M"/>
    <connection from=":J3_0" to="-E2" fromLane="0" toLane="0" dir="l" state="M"/>
    <connection from=":J3_1" to="E3" fromLane="0" toLane="0" dir="r" state="M"/>

</net>
