<?xml version="1.0" encoding="UTF-8"?>
<routes xmlns:xsi="http://www.w3.org/2001/XMLSchema-instance" xsi:noNamespaceSchemaLocation="http://sumo.dlr.de/xsd/routes_file.xsd">
  <vType id="DEFAULT_VEHTYPE" sigma="0"/>
  <flow begin="0" end="1000" period="1" id="flow" route="r1">
  </flow>
</routes>
