<routes>
   <vtype id="t1" accel="0.8" decel="4.5" sigma="0" length="5" maxspeed="10"/>
   <vtype id="t2" accel="0.8" decel="4.5" sigma="0" length="5" maxspeed="9"/>
   <route id="r1" multi_ref="x">4/1to3/1 3/1to2/1 2/1to1/1 1/1to0/1</route>
</routes>
