<routes xmlns:xsi="http://www.w3.org/2001/XMLSchema-instance" xsi:noNamespaceSchemaLocation="http://sumo.sf.net/xsd/routes_file.xsd">
    <route id="r0" edges="beg end"/>
    <vehicle id="blocker" depart="0" route="r0" departSpeed="max">
        <stop lane="beg_0" endPos="99" duration="400"/>
    </vehicle>
    <vehicle id="blocked" depart="0" departLane="1" route="r0" departSpeed="max"/>
</routes>
