<?xml version="1.0" encoding="UTF-8"?>

<!-- generated on 06/01/11 09:28:05 by SUMO netconvert Version dev-SVN-r10489

<configuration xmlns:xsi="http://www.w3.org/2001/XMLSchema-instance" xsi:noNamespaceSchemaLocation="http://sumo-sim.org/xsd/netconvertConfiguration.xsd">

    <input>
        <node-files value="input_nodes.nod.xml,input_nodes2.nod.xml"/>
        <edge-files value="input_edges.edg.xml"/>
    </input>

    <output>
        <output value="net.net.xml"/>
    </output>

    <report>
        <verbose value="true"/>
    </report>

</configuration>
-->

<net version="0.13" xmlns:xsi="http://www.w3.org/2001/XMLSchema-instance" xsi:noNamespaceSchemaLocation="http://sumo-sim.org/xsd/net_file.xsd">

    <location netOffset="500.00,500.00" convBoundary="0.00,0.00,1000.00,1000.00" origBoundary="-500.00,-500.00,500.00,500.00" projParameter="!"/>

    <edge id=":0_0" function="internal">
        <lane id=":0_0_0" index="0" speed="16.00" length="7.85" shape="495.05,508.05 494.86,505.25 494.27,503.25 493.31,502.05 491.95,501.65"/>
    </edge>
    <edge id=":0_1" function="internal">
        <lane id=":0_1_0" index="0" speed="16.00" length="16.51" shape="495.05,508.05 495.57,502.77 496.70,498.79 497.83,495.42 498.35,491.95"/>
    </edge>
    <edge id=":0_2" function="internal">
        <lane id=":0_2_0" index="0" speed="16.00" length="15.64" shape="498.35,508.05 498.96,503.81 500.77,500.77 503.81,498.96 508.05,498.35"/>
    </edge>
    <edge id=":0_3" function="internal">
        <lane id=":0_3_0" index="0" speed="16.00" length="4.82" shape="498.35,508.05 499.18,506.81 500.00,506.40 500.82,506.81 501.65,508.05"/>
    </edge>
    <edge id=":0_4" function="internal">
        <lane id=":0_4_0" index="0" speed="16.00" length="7.85" shape="508.05,504.95 505.25,505.14 503.25,505.73 502.05,506.69 501.65,508.05"/>
    </edge>
    <edge id=":0_5" function="internal">
        <lane id=":0_5_0" index="0" speed="16.00" length="16.51" shape="508.05,504.95 502.77,504.43 498.79,503.30 495.42,502.17 491.95,501.65"/>
    </edge>
    <edge id=":0_6" function="internal">
        <lane id=":0_6_0" index="0" speed="16.00" length="15.64" shape="508.05,501.65 503.81,501.04 500.77,499.23 498.96,496.19 498.35,491.95"/>
    </edge>
    <edge id=":0_7" function="internal">
        <lane id=":0_7_0" index="0" speed="16.00" length="4.82" shape="508.05,501.65 506.81,500.83 506.40,500.00 506.81,499.18 508.05,498.35"/>
    </edge>
    <edge id=":0_8" function="internal">
        <lane id=":0_8_0" index="0" speed="16.00" length="7.85" shape="504.95,491.95 505.14,494.75 505.73,496.75 506.69,497.95 508.05,498.35"/>
    </edge>
    <edge id=":0_9" function="internal">
        <lane id=":0_9_0" index="0" speed="16.00" length="16.51" shape="504.95,491.95 504.43,497.23 503.30,501.21 502.17,504.58 501.65,508.05"/>
    </edge>
    <edge id=":0_10" function="internal">
        <lane id=":0_10_0" index="0" speed="16.00" length="15.64" shape="501.65,491.95 501.04,496.19 499.23,499.23 496.19,501.04 491.95,501.65"/>
    </edge>
    <edge id=":0_11" function="internal">
        <lane id=":0_11_0" index="0" speed="16.00" length="4.82" shape="501.65,491.95 500.82,493.19 500.00,493.60 499.18,493.19 498.35,491.95"/>
    </edge>
    <edge id=":0_12" function="internal">
        <lane id=":0_12_0" index="0" speed="16.00" length="7.85" shape="491.95,495.05 494.75,494.86 496.75,494.28 497.95,493.31 498.35,491.95"/>
    </edge>
    <edge id=":0_13" function="internal">
        <lane id=":0_13_0" index="0" speed="16.00" length="16.51" shape="491.95,495.05 497.23,495.57 501.21,496.70 504.58,497.83 508.05,498.35"/>
    </edge>
    <edge id=":0_14" function="internal">
        <lane id=":0_14_0" index="0" speed="16.00" length="15.64" shape="491.95,498.35 496.19,498.96 499.23,500.78 501.04,503.81 501.65,508.05"/>
    </edge>
    <edge id=":0_15" function="internal">
        <lane id=":0_15_0" index="0" speed="16.00" length="4.82" shape="491.95,498.35 493.19,499.17 493.60,500.00 493.19,500.82 491.95,501.65"/>
    </edge>
    <edge id=":1_0" function="internal">
        <lane id=":1_0_0" index="0" speed="16.00" length="4.82" shape="0.00,501.65 -1.24,500.82 -1.65,500.00 -1.24,499.18 0.00,498.35"/>
    </edge>
    <edge id=":2_0" function="internal">
        <lane id=":2_0_0" index="0" speed="16.00" length="4.82" shape="1000.00,498.35 1001.24,499.17 1001.65,500.00 1001.24,500.82 1000.00,501.65"/>
    </edge>
    <edge id=":3_0" function="internal">
        <lane id=":3_0_0" index="0" speed="16.00" length="4.82" shape="498.35,0.00 499.18,-1.24 500.00,-1.65 500.82,-1.24 501.65,0.00"/>
    </edge>
    <edge id=":4_0" function="internal">
        <lane id=":4_0_0" index="0" speed="16.00" length="4.82" shape="501.65,1000.00 500.82,1001.24 500.00,1001.65 499.18,1001.24 498.35,1000.00"/>
    </edge>

    <edge id="1fi" from="1" to="0" priority="-1">
        <lane id="1fi_0" index="0" speed="16.00" length="491.95" shape="0.00,495.05 491.95,495.05"/>
        <lane id="1fi_1" index="1" speed="16.00" length="491.95" shape="0.00,498.35 491.95,498.35"/>
    </edge>
    <edge id="1o" from="0" to="1" priority="-1">
        <lane id="1o_0" index="0" speed="16.00" length="491.95" shape="491.95,501.65 0.00,501.65"/>
    </edge>
    <edge id="2fi" from="2" to="0" priority="-1">
        <lane id="2fi_0" index="0" speed="16.00" length="491.95" shape="1000.00,504.95 508.05,504.95"/>
        <lane id="2fi_1" index="1" speed="16.00" length="491.95" shape="1000.00,501.65 508.05,501.65"/>
    </edge>
    <edge id="2o" from="0" to="2" priority="-1">
        <lane id="2o_0" index="0" speed="16.00" length="491.95" shape="508.05,498.35 1000.00,498.35"/>
    </edge>
    <edge id="3fi" from="3" to="0" priority="-1">
        <lane id="3fi_0" index="0" speed="16.00" length="491.95" shape="504.95,0.00 504.95,491.95"/>
        <lane id="3fi_1" index="1" speed="16.00" length="491.95" shape="501.65,0.00 501.65,491.95"/>
    </edge>
    <edge id="3o" from="0" to="3" priority="-1">
        <lane id="3o_0" index="0" speed="16.00" length="491.95" shape="498.35,491.95 498.35,0.00"/>
    </edge>
    <edge id="4fi" from="4" to="0" priority="-1">
        <lane id="4fi_0" index="0" speed="16.00" length="491.95" shape="495.05,1000.00 495.05,508.05"/>
        <lane id="4fi_1" index="1" speed="16.00" length="491.95" shape="498.35,1000.00 498.35,508.05"/>
    </edge>
    <edge id="4o" from="0" to="4" priority="-1">
        <lane id="4o_0" index="0" speed="16.00" length="491.95" shape="501.65,508.05 501.65,1000.00"/>
    </edge>

    <junction id="0" type="right_before_left" x="500.00" y="500.00" incLanes="4fi_0 4fi_1 2fi_0 2fi_1 3fi_0 3fi_1 1fi_0 1fi_1" intLanes=":0_0_0 :0_1_0 :0_2_0 :0_3_0 :0_4_0 :0_5_0 :0_6_0 :0_7_0 :0_8_0 :0_9_0 :0_10_0 :0_11_0 :0_12_0 :0_13_0 :0_14_0 :0_15_0" shape="493.45,508.05 503.25,508.05 508.05,506.55 508.05,496.75 506.55,491.95 496.75,491.95 491.95,493.45 491.95,503.25">
        <request index="0" response="0000000000000000" foes="1000010000100000" cont="0"/>
        <request index="1" response="0111000000000000" foes="0111110001100000" cont="0"/>
        <request index="2" response="0110001100000000" foes="0110001111100000" cont="0"/>
        <request index="3" response="0100001000010000" foes="0100001000010000" cont="0"/>
        <request index="4" response="0000000000000000" foes="0100001000001000" cont="0"/>
        <request index="5" response="0000000000000111" foes="1100011000000111" cont="0"/>
        <request index="6" response="0011000000000110" foes="0011111000000110" cont="0"/>
        <request index="7" response="0010000100000100" foes="0010000100000100" cont="0"/>
        <request index="8" response="0000000000000000" foes="0010000010000100" cont="0"/>
        <request index="9" response="0000000001110000" foes="0110000001111100" cont="0"/>
        <request index="10" response="0000000001100011" foes="1110000001100011" cont="0"/>
        <request index="11" response="0001000001000010" foes="0001000001000010" cont="0"/>
        <request index="12" response="0000000000000000" foes="0000100001000010" cont="0"/>
        <request index="13" response="0000011100000000" foes="0000011111000110" cont="0"/>
        <request index="14" response="0000011000110000" foes="0000011000111110" cont="0"/>
        <request index="15" response="0000010000100001" foes="0000010000100001" cont="0"/>
    </junction>
    <junction id="1" type="priority" x="0.00" y="500.00" incLanes="1o_0" intLanes=":1_0_0" shape="0.00,499.95 0.00,493.45 -0.00,503.25 -0.00,500.05">
        <request index="0" response="0" foes="0" cont="0"/>
    </junction>
    <junction id="2" type="priority" x="1000.00" y="500.00" incLanes="2o_0" intLanes=":2_0_0" shape="1000.00,500.05 1000.00,506.55 1000.00,496.75 1000.00,499.95">
        <request index="0" response="0" foes="0" cont="0"/>
    </junction>
    <junction id="3" type="priority" x="500.00" y="0.00" incLanes="3o_0" intLanes=":3_0_0" shape="500.05,0.00 506.55,0.00 496.75,-0.00 499.95,-0.00">
        <request index="0" response="0" foes="0" cont="0"/>
    </junction>
    <junction id="4" type="priority" x="500.00" y="1000.00" incLanes="4o_0" intLanes=":4_0_0" shape="499.95,1000.00 493.45,1000.00 503.25,1000.00 500.05,1000.00">
        <request index="0" response="0" foes="0" cont="0"/>
    </junction>

    <connection from="1fi" to="3o" fromLane="0" toLane="0" via=":0_12_0" dir="r" state="="/>
    <connection from="1fi" to="2o" fromLane="0" toLane="0" via=":0_13_0" dir="s" state="="/>
    <connection from="1fi" to="4o" fromLane="1" toLane="0" via=":0_14_0" dir="l" state="="/>
    <connection from="1fi" to="1o" fromLane="1" toLane="0" via=":0_15_0" dir="t" state="="/>
    <connection from="1o" to="1fi" fromLane="0" toLane="1" via=":1_0_0" dir="t" state="M"/>
    <connection from="2fi" to="4o" fromLane="0" toLane="0" via=":0_4_0" dir="r" state="="/>
    <connection from="2fi" to="1o" fromLane="0" toLane="0" via=":0_5_0" dir="s" state="="/>
    <connection from="2fi" to="3o" fromLane="1" toLane="0" via=":0_6_0" dir="l" state="="/>
    <connection from="2fi" to="2o" fromLane="1" toLane="0" via=":0_7_0" dir="t" state="="/>
    <connection from="2o" to="2fi" fromLane="0" toLane="1" via=":2_0_0" dir="t" state="M"/>
    <connection from="3fi" to="2o" fromLane="0" toLane="0" via=":0_8_0" dir="r" state="="/>
    <connection from="3fi" to="4o" fromLane="0" toLane="0" via=":0_9_0" dir="s" state="="/>
    <connection from="3fi" to="1o" fromLane="1" toLane="0" via=":0_10_0" dir="l" state="="/>
    <connection from="3fi" to="3o" fromLane="1" toLane="0" via=":0_11_0" dir="t" state="="/>
    <connection from="3o" to="3fi" fromLane="0" toLane="1" via=":3_0_0" dir="t" state="M"/>
    <connection from="4fi" to="1o" fromLane="0" toLane="0" via=":0_0_0" dir="r" state="="/>
    <connection from="4fi" to="3o" fromLane="0" toLane="0" via=":0_1_0" dir="s" state="="/>
    <connection from="4fi" to="2o" fromLane="1" toLane="0" via=":0_2_0" dir="l" state="="/>
    <connection from="4fi" to="4o" fromLane="1" toLane="0" via=":0_3_0" dir="t" state="="/>
    <connection from="4o" to="4fi" fromLane="0" toLane="1" via=":4_0_0" dir="t" state="M"/>

    <connection from=":0_0" to="1o" fromLane="0" toLane="0" dir="s" state="M"/>
    <connection from=":0_1" to="3o" fromLane="0" toLane="0" dir="s" state="M"/>
    <connection from=":0_2" to="2o" fromLane="0" toLane="0" dir="s" state="M"/>
    <connection from=":0_3" to="4o" fromLane="0" toLane="0" dir="s" state="M"/>
    <connection from=":0_4" to="4o" fromLane="0" toLane="0" dir="s" state="M"/>
    <connection from=":0_5" to="1o" fromLane="0" toLane="0" dir="s" state="M"/>
    <connection from=":0_6" to="3o" fromLane="0" toLane="0" dir="s" state="M"/>
    <connection from=":0_7" to="2o" fromLane="0" toLane="0" dir="s" state="M"/>
    <connection from=":0_8" to="2o" fromLane="0" toLane="0" dir="s" state="M"/>
    <connection from=":0_9" to="4o" fromLane="0" toLane="0" dir="s" state="M"/>
    <connection from=":0_10" to="1o" fromLane="0" toLane="0" dir="s" state="M"/>
    <connection from=":0_11" to="3o" fromLane="0" toLane="0" dir="s" state="M"/>
    <connection from=":0_12" to="3o" fromLane="0" toLane="0" dir="s" state="M"/>
    <connection from=":0_13" to="2o" fromLane="0" toLane="0" dir="s" state="M"/>
    <connection from=":0_14" to="4o" fromLane="0" toLane="0" dir="s" state="M"/>
    <connection from=":0_15" to="1o" fromLane="0" toLane="0" dir="s" state="M"/>
    <connection from=":1_0" to="1fi" fromLane="0" toLane="1" dir="s" state="M"/>
    <connection from=":2_0" to="2fi" fromLane="0" toLane="1" dir="s" state="M"/>
    <connection from=":3_0" to="3fi" fromLane="0" toLane="1" dir="s" state="M"/>
    <connection from=":4_0" to="4fi" fromLane="0" toLane="1" dir="s" state="M"/>

</net>
