<?xml version="1.0" encoding="UTF-8"?>

<!-- generated on 28.05.2018 10:39:44 by Eclipse SUMO netedit Version 45435feb69
<configuration xmlns:xsi="http://www.w3.org/2001/XMLSchema-instance" xsi:noNamespaceSchemaLocation="http://sumo.dlr.de/xsd/netconvertConfiguration.xsd">

    <input>
        <sumo-net-file value="C:\Projects\Sumo\tests\netedit\additionalElements\vaporizer\load\input_net.net.xml"/>
    </input>

    <output>
        <output-file value="C:\Projects\Sumo\tests\netedit\additionalElements\vaporizer\load\input_net.net.xml"/>
        <plain-output-prefix value="C:\Projects\Sumo\tests\netedit\additionalElements\vaporizer\load\input_net"/>
    </output>

    <processing>
        <no-turnarounds value="true"/>
        <offset.disable-normalization value="true"/>
        <lefthand value="false"/>
        <junctions.corner-detail value="0"/>
        <rectangular-lane-cut value="false"/>
        <walkingareas value="false"/>
    </processing>

</configuration>
-->

<edges version="0.27" xmlns:xsi="http://www.w3.org/2001/XMLSchema-instance" xsi:noNamespaceSchemaLocation="http://sumo.dlr.de/xsd/edges_file.xsd">
    <edge id="1" from="gneJ10" to="gneJ11" priority="1" numLanes="1" speed="13.89"/>
    <edge id="10" from="gneJ4" to="gneJ5" priority="1" numLanes="1" speed="13.89"/>
    <edge id="11" from="gneJ7" to="gneJ6" priority="1" numLanes="1" speed="13.89"/>
    <edge id="12" from="gneJ6" to="gneJ7" priority="1" numLanes="1" speed="13.89"/>
    <edge id="13" from="gneJ12" to="gneJ13" priority="1" numLanes="1" speed="13.89"/>
    <edge id="14" from="gneJ13" to="gneJ12" priority="1" numLanes="1" speed="13.89"/>
    <edge id="2" from="gneJ11" to="gneJ10" priority="1" numLanes="1" speed="13.89"/>
    <edge id="3" from="gneJ9" to="gneJ8" priority="1" numLanes="1" speed="13.89"/>
    <edge id="4" from="gneJ8" to="gneJ9" priority="1" numLanes="1" speed="13.89"/>
    <edge id="5" from="gneJ3" to="gneJ2" priority="1" numLanes="1" speed="13.89"/>
    <edge id="6" from="gneJ2" to="gneJ3" priority="1" numLanes="1" speed="13.89"/>
    <edge id="7" from="gneJ1" to="gneJ0" priority="1" numLanes="1" speed="13.89"/>
    <edge id="8" from="gneJ0" to="gneJ1" priority="1" numLanes="1" speed="13.89"/>
    <edge id="9" from="gneJ5" to="gneJ4" priority="1" numLanes="1" speed="13.89"/>
    <edge id="gneE13" from="gneJ14" to="gneJ13" priority="1" numLanes="1" speed="13.89" shape="0.00,-30.00 0.10,-29.90"/>
</edges>
