<?xml version="1.0" encoding="UTF-8"?>

<!-- generated on 2022-01-19 15:00:24 by Eclipse SUMO netedit Version v1_11_0+1273-140530bb1dd
-->

<routes xmlns:xsi="http://www.w3.org/2001/XMLSchema-instance" xsi:noNamespaceSchemaLocation="http://sumo.dlr.de/xsd/routes_file.xsd">
</routes>
