<?xml version="1.0" encoding="UTF-8"?>

<!-- generated on 2023-07-06 15:13:15 by Eclipse SUMO netedit Version v1_18_0+0156-485092721a9
-->

<routes xmlns:xsi="http://www.w3.org/2001/XMLSchema-instance" xsi:noNamespaceSchemaLocation="http://sumo.dlr.de/xsd/routes_file.xsd">
    <!-- Vehicles, persons and containers (sorted by depart) -->
    <containerFlow id="cf_0" begin="0.00" end="3600.00" containersPerHour="1800">
        <param key="keyFinal1" value="value1"/>
        <param key="keyFinal2" value="value2"/>
        <param key="keyFinal3" value="value3"/>
        <transport from="gneE2" to="gneE5" lines="ANY"/>
    </containerFlow>
</routes>
