<?xml version="1.0" encoding="UTF-8"?>

<!-- generated on 2023-03-22 06:54:25.182262 by gtfs2pt.py v1_16_0+1532-c39e8b829c2
<configuration>
    <date value="20160713"/>
    <gtfs value="https://sumo.dlr.de/daily/GTFS_VBB_Juni-Dezember-2016.zip"/>
    <network value="test/osm.net.xml.gz"/>
</configuration>
-->

<additional xmlns:xsi="http://www.w3.org/2001/XMLSchema-instance" xsi:noNamespaceSchemaLocation="http://sumo.dlr.de/xsd/additional_file.xsd">
    <busStop id="-4612981#1:13.00" lane="-4612981#1_0" startPos="0.00" endPos="13.00" friendlyPos="true" name="S+U Alexanderplatz Bhf (Berlin)">
        <access friendlyPos="true" lane="272757271_0" pos="0.00" length="10.52"/>
        <access friendlyPos="true" lane="272757273_0" pos="0.00" length="7.51"/>
        <access friendlyPos="true" lane="272757274_0" pos="9.62" length="9.25"/>
        <access friendlyPos="true" lane="272757311_0" pos="0.00" length="5.56"/>
        <access friendlyPos="true" lane="272757314_0" pos="2.41" length="11.73"/>
        <access friendlyPos="true" lane="272757341#0_0" pos="0.06" length="1.71"/>
        <access friendlyPos="true" lane="272757341#1_0" pos="0.13" length="6.66"/>
        <access friendlyPos="true" lane="272757341#2_0" pos="0.20" length="5.02"/>
        <access friendlyPos="true" lane="272757342#1_0" pos="10.46" length="15.24"/>
        <access friendlyPos="true" lane="272757342#2_0" pos="0.00" length="18.59"/>
    </busStop>
    <busStop id="194073677#3:13.00" lane="194073677#3_1" startPos="0.00" endPos="13.00" friendlyPos="true" name="S+U Friedrichstr. Bhf (Berlin)"/>
    <busStop id="24240246#0:75.62" lane="24240246#0_2" startPos="62.62" endPos="75.62" friendlyPos="true" name="S+U Brandenburger Tor (Berlin)"/>
    <busStop id="461526152#1:13.00" lane="461526152#1_0" startPos="0.00" endPos="13.00" friendlyPos="true" name="Unter den Linden/Friedrichstr. (Berlin)">
        <access friendlyPos="true" lane="1037130999#2_0" pos="0.20" length="38.03"/>
        <access friendlyPos="true" lane="1124928840#2_0" pos="0.00" length="7.97"/>
        <access friendlyPos="true" lane="1124928840#3_0" pos="0.00" length="8.24"/>
        <access friendlyPos="true" lane="1124928841#0_0" pos="5.16" length="27.62"/>
        <access friendlyPos="true" lane="1124928841#1_0" pos="4.90" length="17.39"/>
        <access friendlyPos="true" lane="1124928841#8_0" pos="0.00" length="21.87"/>
        <access friendlyPos="true" lane="1124928841#9_0" pos="0.00" length="30.91"/>
        <access friendlyPos="true" lane="194069450#0_0" pos="59.04" length="40.81"/>
        <access friendlyPos="true" lane="915958599#1_0" pos="2.71" length="13.49"/>
        <access friendlyPos="true" lane="915958599#2_0" pos="0.00" length="4.69"/>
    </busStop>
    <busStop id="340498982#1:93.30" lane="340498982#1_0" startPos="80.30" endPos="93.30" friendlyPos="true" name="Staatsoper (Berlin)">
        <access friendlyPos="true" lane="-28251222#1_0" pos="0.00" length="41.33"/>
        <access friendlyPos="true" lane="-28251222#2_0" pos="0.00" length="35.20"/>
        <access friendlyPos="true" lane="1037130735#1_0" pos="93.50" length="24.54"/>
        <access friendlyPos="true" lane="1037130735#2_0" pos="0.00" length="35.83"/>
        <access friendlyPos="true" lane="1037136888_0" pos="0.00" length="28.74"/>
        <access friendlyPos="true" lane="28251222#1_0" pos="97.16" length="48.07"/>
        <access friendlyPos="true" lane="28251222#2_0" pos="1.52" length="43.07"/>
        <access friendlyPos="true" lane="442389818#5_0" pos="39.45" length="31.48"/>
        <access friendlyPos="true" lane="442389818#6_0" pos="14.01" length="18.44"/>
        <access friendlyPos="true" lane="803471188#0_0" pos="0.20" length="30.45"/>
    </busStop>
    <busStop id="1126244314#1:73.74" lane="1126244314#1_2" startPos="60.74" endPos="73.74" friendlyPos="true" name="Lustgarten (Berlin)"/>
    <busStop id="202156994#0:75.72" lane="202156994#0_0" startPos="62.93" endPos="75.72" friendlyPos="true" name="Spandauer Str./Marienkirche (Berlin)">
        <access friendlyPos="true" lane="171826987#0_0" pos="2.36" length="51.44"/>
        <access friendlyPos="true" lane="171826987#4_0" pos="0.00" length="43.25"/>
        <access friendlyPos="true" lane="171826987#5_0" pos="0.00" length="50.51"/>
        <access friendlyPos="true" lane="24913519#1_0" pos="0.00" length="37.06"/>
        <access friendlyPos="true" lane="375901768#0_0" pos="0.20" length="42.90"/>
        <access friendlyPos="true" lane="375901768#2_0" pos="0.00" length="38.96"/>
        <access friendlyPos="true" lane="375901769#1_0" pos="0.20" length="50.06"/>
        <access friendlyPos="true" lane="375901774#2_0" pos="0.00" length="43.95"/>
        <access friendlyPos="true" lane="375901784_0" pos="0.21" length="45.66"/>
        <access friendlyPos="true" lane="72157174#1_0" pos="0.00" length="47.29"/>
    </busStop>
    <busStop id="1113401735#1:62.07" lane="1113401735#1_1" startPos="49.07" endPos="62.07" friendlyPos="true" name="S+U Alexanderplatz Bhf/Memhardstr. (Berlin)"/>
    <busStop id="195401013#2:74.69" lane="195401013#2_0" startPos="61.69" endPos="74.69" friendlyPos="true" name="S+U Alexanderplatz (Bln) [Bus K.-Liebknecht-Str]">
        <access friendlyPos="true" lane="1079045027#1_0" pos="48.92" length="62.54"/>
        <access friendlyPos="true" lane="1079045029#1_0" pos="19.58" length="80.01"/>
        <access friendlyPos="true" lane="1079045029#2_0" pos="7.51" length="63.49"/>
        <access friendlyPos="true" lane="1079045029#3_0" pos="30.88" length="33.68"/>
        <access friendlyPos="true" lane="171826984#2_0" pos="206.45" length="0.13"/>
        <access friendlyPos="true" lane="312392973_0" pos="40.69" length="70.41"/>
        <access friendlyPos="true" lane="312392974#3_0" pos="42.51" length="70.90"/>
        <access friendlyPos="true" lane="312392974#4_0" pos="0.24" length="62.87"/>
        <access friendlyPos="true" lane="312392974#5_0" pos="34.52" length="21.00"/>
        <access friendlyPos="true" lane="687787219_0" pos="1.17" length="59.87"/>
    </busStop>
    <busStop id="24913519#1:13.00" lane="24913519#1_1" startPos="0.00" endPos="13.00" friendlyPos="true" name="Spandauer Str./Marienkirche (Berlin)"/>
    <busStop id="61584187#1:30.39" lane="61584187#1_1" startPos="17.39" endPos="30.39" friendlyPos="true" name="Lustgarten (Berlin)"/>
    <busStop id="169195795#0:13.00" lane="169195795#0_1" startPos="0.00" endPos="13.00" friendlyPos="true" name="Staatsoper (Berlin)">
        <access friendlyPos="true" lane="-28251222#1_0" pos="0.00" length="41.33"/>
        <access friendlyPos="true" lane="-28251222#2_0" pos="0.00" length="35.20"/>
        <access friendlyPos="true" lane="1037130735#1_0" pos="93.50" length="24.54"/>
        <access friendlyPos="true" lane="1037130735#2_0" pos="0.00" length="35.83"/>
        <access friendlyPos="true" lane="1037136888_0" pos="0.00" length="28.74"/>
        <access friendlyPos="true" lane="28251222#1_0" pos="97.16" length="48.07"/>
        <access friendlyPos="true" lane="28251222#2_0" pos="1.52" length="43.07"/>
        <access friendlyPos="true" lane="442389818#5_0" pos="39.45" length="31.48"/>
        <access friendlyPos="true" lane="442389818#6_0" pos="14.01" length="18.44"/>
        <access friendlyPos="true" lane="803471188#0_0" pos="0.20" length="30.45"/>
    </busStop>
    <busStop id="340498988#0:39.18" lane="340498988#0_0" startPos="26.20" endPos="39.18" friendlyPos="true" name="Unter den Linden/Friedrichstr. (Berlin)">
        <access friendlyPos="true" lane="1037130999#2_0" pos="0.20" length="38.03"/>
        <access friendlyPos="true" lane="1124928840#2_0" pos="0.00" length="7.97"/>
        <access friendlyPos="true" lane="1124928840#3_0" pos="0.00" length="8.24"/>
        <access friendlyPos="true" lane="1124928841#0_0" pos="5.16" length="27.62"/>
        <access friendlyPos="true" lane="1124928841#1_0" pos="4.90" length="17.39"/>
        <access friendlyPos="true" lane="1124928841#8_0" pos="0.00" length="21.87"/>
        <access friendlyPos="true" lane="1124928841#9_0" pos="0.00" length="30.91"/>
        <access friendlyPos="true" lane="194069450#0_0" pos="59.04" length="40.81"/>
        <access friendlyPos="true" lane="915958599#1_0" pos="2.71" length="13.49"/>
        <access friendlyPos="true" lane="915958599#2_0" pos="0.00" length="4.69"/>
    </busStop>
    <busStop id="24913304#4:92.46" lane="24913304#4_2" startPos="79.46" endPos="92.46" friendlyPos="true" name="S+U Brandenburger Tor (Berlin)"/>
    <busStop id="-1100903092:36.25" lane="-1100903092_0" startPos="23.25" endPos="36.25" friendlyPos="true" name="Philippstr. (Berlin)">
        <access friendlyPos="true" lane="-1082931015#1_0" pos="0.00" length="25.40"/>
        <access friendlyPos="true" lane="-1082931015#2_0" pos="0.00" length="18.36"/>
        <access friendlyPos="true" lane="1078024004_0" pos="0.00" length="42.01"/>
        <access friendlyPos="true" lane="1078998334#2_0" pos="40.78" length="13.15"/>
        <access friendlyPos="true" lane="1082931015#1_0" pos="130.94" length="22.41"/>
        <access friendlyPos="true" lane="1082931015#2_0" pos="3.31" length="13.88"/>
        <access friendlyPos="true" lane="1082940470_0" pos="20.55" length="32.96"/>
        <access friendlyPos="true" lane="504171782#4_0" pos="12.87" length="34.44"/>
        <access friendlyPos="true" lane="504171782#5_0" pos="15.85" length="14.43"/>
        <access friendlyPos="true" lane="504171782#6_0" pos="0.00" length="26.54"/>
    </busStop>
    <busStop id="169717723#1:13.00" lane="169717723#1_0" startPos="0.00" endPos="13.00" friendlyPos="true" name="Torstr./U Oranienburger Tor (Berlin)">
        <access friendlyPos="true" lane="1068129615#5_0" pos="2.26" length="13.94"/>
        <access friendlyPos="true" lane="1068129616#0_0" pos="0.20" length="3.76"/>
        <access friendlyPos="true" lane="1068129616#1_0" pos="0.00" length="35.76"/>
        <access friendlyPos="true" lane="1069677813_0" pos="0.00" length="35.59"/>
        <access friendlyPos="true" lane="1069677814#0_0" pos="0.00" length="46.12"/>
        <access friendlyPos="true" lane="1078998329#1_0" pos="0.00" length="68.90"/>
        <access friendlyPos="true" lane="374734397#1_0" pos="45.64" length="2.16"/>
        <access friendlyPos="true" lane="374734397#2_0" pos="0.00" length="4.98"/>
        <access friendlyPos="true" lane="504171780#0_0" pos="5.03" length="33.51"/>
        <access friendlyPos="true" lane="504171783#0_0" pos="0.00" length="14.65"/>
    </busStop>
    <busStop id="300401898:105.68" lane="300401898_1" startPos="92.68" endPos="105.68" friendlyPos="true" name="Mollstr./Prenzlauer Allee (Berlin)">
        <access friendlyPos="true" lane="173193644#6_0" pos="0.00" length="57.33"/>
        <access friendlyPos="true" lane="321069345_0" pos="0.20" length="55.76"/>
        <access friendlyPos="true" lane="321236116_0" pos="0.00" length="7.17"/>
        <access friendlyPos="true" lane="321236117_0" pos="11.48" length="12.79"/>
        <access friendlyPos="true" lane="331114771#2_0" pos="0.00" length="67.41"/>
        <access friendlyPos="true" lane="395223501#1_0" pos="9.10" length="8.84"/>
        <access friendlyPos="true" lane="395223501#2_0" pos="0.20" length="2.88"/>
        <access friendlyPos="true" lane="395223501#6_0" pos="0.00" length="9.72"/>
        <access friendlyPos="true" lane="395223501#7_0" pos="0.00" length="6.84"/>
        <access friendlyPos="true" lane="395223501#8_0" pos="0.00" length="28.42"/>
    </busStop>
    <busStop id="-4613300#0:102.21" lane="-4613300#0_0" startPos="89.21" endPos="102.21" friendlyPos="true" name="U Rosa-Luxemburg-Platz (Berlin)">
        <access friendlyPos="true" lane="1070995450#1_0" pos="2.62" length="101.87"/>
        <access friendlyPos="true" lane="1071007455#1_0" pos="0.00" length="57.46"/>
        <access friendlyPos="true" lane="1071007455#7_0" pos="91.31" length="32.51"/>
        <access friendlyPos="true" lane="1071049477#3_0" pos="22.13" length="106.42"/>
        <access friendlyPos="true" lane="1071049477#4_0" pos="7.58" length="87.66"/>
        <access friendlyPos="true" lane="1071049477#5_0" pos="0.00" length="84.85"/>
        <access friendlyPos="true" lane="1071049478_0" pos="0.00" length="103.12"/>
        <access friendlyPos="true" lane="1071049479#0_0" pos="0.00" length="56.18"/>
        <access friendlyPos="true" lane="1071049479#1_0" pos="0.00" length="81.46"/>
        <access friendlyPos="true" lane="1071049481#2_0" pos="53.83" length="46.51"/>
    </busStop>
    <busStop id="-4612414#1:13.00" lane="-4612414#1_2" startPos="0.00" endPos="13.00" friendlyPos="true" name="U Märkisches Museum (Berlin)"/>
    <busStop id="1102369963#1:13.00" lane="1102369963#1_2" startPos="0.00" endPos="13.00" friendlyPos="true" name="Fischerinsel. (Berlin)"/>
    <busStop id="755551646#1:13.00" lane="755551646#1_2" startPos="0.00" endPos="13.00" friendlyPos="true" name="Neumannsgasse (Berlin)"/>
    <busStop id="-1127602336:13.00" lane="-1127602336_2" startPos="0.00" endPos="13.00" friendlyPos="true" name="Werderscher Markt (Berlin)"/>
    <busStop id="-35557143#4:63.46" lane="-35557143#4_1" startPos="50.46" endPos="63.46" friendlyPos="true" name="U Französische Str. (Berlin)"/>
    <busStop id="194069450#0:59.04" lane="194069450#0_1" startPos="46.04" endPos="59.04" friendlyPos="true" name="Unter den Linden/Friedrichstr. (Berlin)"/>
    <busStop id="1100889498:13.00" lane="1100889498_0" startPos="0.00" endPos="13.00" friendlyPos="true" name="Friedrichstr./Reinhardtstr. (Berlin)">
        <access friendlyPos="true" lane="-131420077#0_0" pos="119.88" length="43.33"/>
        <access friendlyPos="true" lane="-27628628#0_0" pos="0.69" length="43.80"/>
        <access friendlyPos="true" lane="1087301095#1_0" pos="0.00" length="68.56"/>
        <access friendlyPos="true" lane="1087301096#3_0" pos="132.27" length="4.89"/>
        <access friendlyPos="true" lane="27628628#0_0" pos="0.00" length="48.36"/>
        <access friendlyPos="true" lane="27628628#1_0" pos="5.61" length="48.14"/>
        <access friendlyPos="true" lane="465376250#0_0" pos="1.02" length="69.87"/>
        <access friendlyPos="true" lane="465376250#1_0" pos="0.19" length="66.54"/>
        <access friendlyPos="true" lane="465376251#1_0" pos="9.60" length="54.42"/>
        <access friendlyPos="true" lane="465376251#2_0" pos="23.30" length="18.23"/>
    </busStop>
    <busStop id="-176043807#4:20.54" lane="-176043807#4_1" startPos="7.54" endPos="20.54" friendlyPos="true" name="Deutsches Theater (Berlin)"/>
    <busStop id="4592725#5:142.55" lane="4592725#5_1" startPos="129.55" endPos="142.55" friendlyPos="true" name="Schumannstr. (Berlin)"/>
    <busStop id="-505475202#0:43.07" lane="-505475202#0_1" startPos="30.07" endPos="43.07" friendlyPos="true" name="Neumannsgasse (Berlin)"/>
    <busStop id="-1100824590#0:63.47" lane="-1100824590#0_0" startPos="50.47" endPos="63.47" friendlyPos="true" name="Friedrichstr./Reinhardtstr. (Berlin)">
        <access friendlyPos="true" lane="-131420077#0_0" pos="119.88" length="43.33"/>
        <access friendlyPos="true" lane="-27628628#0_0" pos="0.69" length="43.80"/>
        <access friendlyPos="true" lane="1087301095#1_0" pos="0.00" length="68.56"/>
        <access friendlyPos="true" lane="1087301096#3_0" pos="132.27" length="4.89"/>
        <access friendlyPos="true" lane="27628628#0_0" pos="0.00" length="48.36"/>
        <access friendlyPos="true" lane="27628628#1_0" pos="5.61" length="48.14"/>
        <access friendlyPos="true" lane="465376250#0_0" pos="1.02" length="69.87"/>
        <access friendlyPos="true" lane="465376250#1_0" pos="0.19" length="66.54"/>
        <access friendlyPos="true" lane="465376251#1_0" pos="9.60" length="54.42"/>
        <access friendlyPos="true" lane="465376251#2_0" pos="23.30" length="18.23"/>
    </busStop>
    <busStop id="-194069450#1:13.00" lane="-194069450#1_1" startPos="0.00" endPos="13.00" friendlyPos="true" name="Unter den Linden/Friedrichstr. (Berlin)"/>
    <busStop id="35557143#1:46.77" lane="35557143#1_1" startPos="33.77" endPos="46.77" friendlyPos="true" name="U Französische Str. (Berlin)"/>
    <busStop id="1127602336:34.03" lane="1127602336_2" startPos="21.03" endPos="34.03" friendlyPos="true" name="Werderscher Markt (Berlin)"/>
    <busStop id="-1127597264#0:13.00" lane="-1127597264#0_2" startPos="0.00" endPos="13.00" friendlyPos="true" name="Neumannsgasse (Berlin)"/>
    <busStop id="-1102369963#1:13.34" lane="-1102369963#1_2" startPos="0.34" endPos="13.34" friendlyPos="true" name="Fischerinsel. (Berlin)"/>
    <busStop id="4612414#1:30.33" lane="4612414#1_2" startPos="17.36" endPos="30.33" friendlyPos="true" name="U Märkisches Museum (Berlin)"/>
    <busStop id="-195430954#0:38.55" lane="-195430954#0_1" startPos="25.55" endPos="38.55" friendlyPos="true" name="U Märkisches Museum/Inselstr. (Berlin)"/>
    <busStop id="-4612431#1:92.80" lane="-4612431#1_2" startPos="79.83" endPos="92.80" friendlyPos="true" name="U Heinrich-Heine-Str. (Berlin)"/>
    <busStop id="216524084:13.00" lane="216524084_1" startPos="0.00" endPos="13.00" friendlyPos="true" name="U Märkisches Museum (Berlin)"/>
    <busStop id="236092221#0:13.00" lane="236092221#0_1" startPos="0.00" endPos="13.00" friendlyPos="true" name="S+U Brandenburger Tor/Glinkastr. (Berlin)"/>
    <busStop id="1101404246#1:13.00" lane="1101404246#1_0" startPos="0.00" endPos="13.00" friendlyPos="true" name="Mollstr./Prenzlauer Allee (Berlin)">
        <access friendlyPos="true" lane="173193644#6_0" pos="0.00" length="57.33"/>
        <access friendlyPos="true" lane="321069345_0" pos="0.20" length="55.76"/>
        <access friendlyPos="true" lane="321236116_0" pos="0.00" length="7.17"/>
        <access friendlyPos="true" lane="321236117_0" pos="11.48" length="12.79"/>
        <access friendlyPos="true" lane="331114771#2_0" pos="0.00" length="67.41"/>
        <access friendlyPos="true" lane="395223501#1_0" pos="9.10" length="8.84"/>
        <access friendlyPos="true" lane="395223501#2_0" pos="0.20" length="2.88"/>
        <access friendlyPos="true" lane="395223501#6_0" pos="0.00" length="9.72"/>
        <access friendlyPos="true" lane="395223501#7_0" pos="0.00" length="6.84"/>
        <access friendlyPos="true" lane="395223501#8_0" pos="0.00" length="28.42"/>
    </busStop>
    <busStop id="-710761407#2:13.00" lane="-710761407#2_2" startPos="0.00" endPos="13.00" friendlyPos="true" name="U Mohrenstr. (Berlin)"/>
    <busStop id="-335462916:13.00" lane="-335462916_2" startPos="0.00" endPos="13.00" friendlyPos="true" name="Behrenstr./Wilhelmstr. (Berlin)"/>
    <busStop id="335462916:20.18" lane="335462916_2" startPos="7.18" endPos="20.18" friendlyPos="true" name="Behrenstr./Wilhelmstr. (Berlin)"/>
    <busStop id="85255870#0:13.00" lane="85255870#0_2" startPos="0.00" endPos="13.00" friendlyPos="true" name="Behrenstr./Wilhelmstr. (Berlin)"/>
    <busStop id="112128419#2:13.00" lane="112128419#2_0" startPos="0.00" endPos="13.00" friendlyPos="true" name="S+U Alexanderplatz Bhf/Memhardstr. (Berlin)">
        <access friendlyPos="true" lane="1113401735#1_0" pos="62.07" length="1.52"/>
        <access friendlyPos="true" lane="139877314#1_0" pos="0.00" length="24.68"/>
        <access friendlyPos="true" lane="171829092_0" pos="0.00" length="25.13"/>
        <access friendlyPos="true" lane="171829093_0" pos="0.00" length="31.62"/>
        <access friendlyPos="true" lane="171829099#0_0" pos="0.52" length="44.79"/>
        <access friendlyPos="true" lane="171829099#1_0" pos="0.21" length="30.14"/>
        <access friendlyPos="true" lane="171829099#2_0" pos="0.20" length="28.25"/>
        <access friendlyPos="true" lane="171829099#4_0" pos="0.20" length="22.42"/>
        <access friendlyPos="true" lane="171829099#5_0" pos="0.20" length="20.72"/>
        <access friendlyPos="true" lane="171829099#6_0" pos="0.00" length="24.36"/>
    </busStop>
    <busStop id="4773464#0:13.00" lane="4773464#0_1" startPos="0.00" endPos="13.00" friendlyPos="true" name="U Spittelmarkt (Berlin)"/>
    <busStop id="23851917#1:13.00" lane="23851917#1_1" startPos="0.00" endPos="13.00" friendlyPos="true" name="Fischerinsel (Berlin)"/>
    <busStop id="1133457765#0:28.58" lane="1133457765#0_2" startPos="15.58" endPos="28.58" friendlyPos="true" name="Berliner Rathaus (Berlin)"/>
    <busStop id="289830064:35.49" lane="289830064_1" startPos="22.49" endPos="35.49" friendlyPos="true" name="Littenstr. (Berlin)">
        <access friendlyPos="true" lane="-1152640373_0" pos="34.73" length="65.17"/>
        <access friendlyPos="true" lane="-1152640374#0_0" pos="27.51" length="53.27"/>
        <access friendlyPos="true" lane="-45235049#1_0" pos="40.61" length="92.28"/>
        <access friendlyPos="true" lane="1025851956_0" pos="28.76" length="53.02"/>
        <access friendlyPos="true" lane="1152640374#0_0" pos="0.00" length="61.75"/>
        <access friendlyPos="true" lane="289830408_0" pos="3.48" length="60.71"/>
        <access friendlyPos="true" lane="312125717#2_0" pos="24.17" length="68.20"/>
        <access friendlyPos="true" lane="312126779#1_0" pos="32.48" length="5.50"/>
        <access friendlyPos="true" lane="45235049#1_0" pos="0.00" length="95.16"/>
        <access friendlyPos="true" lane="558867476_0" pos="28.61" length="69.97"/>
    </busStop>
    <busStop id="66311464#1:33.10" lane="66311464#1_2" startPos="20.10" endPos="33.10" friendlyPos="true" name="S+U Alexanderpl./Grunerstr.(Bln) [Alexanderstr.]"/>
    <busStop id="749876418#1:32.51" lane="749876418#1_2" startPos="19.63" endPos="32.51" friendlyPos="true" name="Alexanderstr. (Berlin)"/>
    <busStop id="1133761791#1:22.08" lane="1133761791#1_1" startPos="9.08" endPos="22.08" friendlyPos="true" name="S+U Alexanderpl./Grunerstr.(Bln) [Grunerstr.]">
        <access friendlyPos="true" lane="-1113758935#0_0" pos="0.00" length="19.82"/>
        <access friendlyPos="true" lane="-1113758935#1_0" pos="0.98" length="16.14"/>
        <access friendlyPos="true" lane="-315245296#0_0" pos="4.76" length="25.03"/>
        <access friendlyPos="true" lane="1113758935#1_0" pos="0.51" length="19.88"/>
        <access friendlyPos="true" lane="246051059_0" pos="18.39" length="24.99"/>
        <access friendlyPos="true" lane="312019436#1_0" pos="0.00" length="26.47"/>
        <access friendlyPos="true" lane="312138362#2_0" pos="11.72" length="12.23"/>
        <access friendlyPos="true" lane="315245296#0_0" pos="0.00" length="27.67"/>
        <access friendlyPos="true" lane="346206372#0_0" pos="0.00" length="21.70"/>
        <access friendlyPos="true" lane="59332212_0" pos="69.41" length="22.90"/>
    </busStop>
    <busStop id="819027709:14.48" lane="819027709_0" startPos="1.48" endPos="14.48" friendlyPos="true" name="Berliner Rathaus (Berlin)">
        <access friendlyPos="true" lane="1133457740#0_0" pos="0.00" length="35.00"/>
        <access friendlyPos="true" lane="1133457741#0_0" pos="3.89" length="53.04"/>
        <access friendlyPos="true" lane="1133457741#1_0" pos="0.20" length="49.16"/>
        <access friendlyPos="true" lane="1133457741#3_0" pos="0.00" length="28.47"/>
        <access friendlyPos="true" lane="1133457742#3_0" pos="0.20" length="41.52"/>
        <access friendlyPos="true" lane="1133457742#4_0" pos="1.07" length="36.30"/>
        <access friendlyPos="true" lane="1133457765#0_0" pos="29.70" length="5.39"/>
        <access friendlyPos="true" lane="313193879#1_0" pos="8.77" length="55.05"/>
        <access friendlyPos="true" lane="780334232#2_0" pos="36.08" length="55.26"/>
        <access friendlyPos="true" lane="82654055_0" pos="67.20" length="47.24"/>
    </busStop>
    <busStop id="81112790#0:25.31" lane="81112790#0_1" startPos="12.31" endPos="25.31" friendlyPos="true" name="Nikolaiviertel (Berlin)">
        <access friendlyPos="true" lane="-1136370408_0" pos="0.00" length="34.26"/>
        <access friendlyPos="true" lane="1120378080#2_0" pos="6.91" length="46.89"/>
        <access friendlyPos="true" lane="1133457727_0" pos="67.84" length="12.54"/>
        <access friendlyPos="true" lane="1136370408_0" pos="4.61" length="37.86"/>
        <access friendlyPos="true" lane="23812656_0" pos="0.00" length="61.09"/>
        <access friendlyPos="true" lane="23851922#1_0" pos="89.02" length="1.26"/>
        <access friendlyPos="true" lane="60333311#0_0" pos="0.00" length="61.20"/>
        <access friendlyPos="true" lane="780334232#0_0" pos="37.25" length="48.47"/>
        <access friendlyPos="true" lane="780334232#1_0" pos="13.61" length="34.25"/>
        <access friendlyPos="true" lane="82654055_0" pos="0.00" length="45.16"/>
    </busStop>
    <busStop id="625843712:51.40" lane="625843712_1" startPos="38.40" endPos="51.40" friendlyPos="true" name="Fischerinsel (Berlin)"/>
    <busStop id="312533962#1:13.00" lane="312533962#1_1" startPos="0.00" endPos="13.00" friendlyPos="true" name="Alexanderstr. (Berlin)">
        <access friendlyPos="true" lane="-194962398#2_0" pos="0.00" length="60.66"/>
        <access friendlyPos="true" lane="334070743#0_0" pos="0.20" length="74.94"/>
        <access friendlyPos="true" lane="334070743#1_0" pos="0.00" length="74.08"/>
        <access friendlyPos="true" lane="334070743#2_0" pos="0.00" length="78.90"/>
        <access friendlyPos="true" lane="380636480#0_0" pos="232.03" length="11.97"/>
        <access friendlyPos="true" lane="380636480#1_0" pos="0.00" length="46.60"/>
        <access friendlyPos="true" lane="473081308#0_0" pos="0.00" length="47.77"/>
        <access friendlyPos="true" lane="473081308#1_0" pos="0.00" length="61.17"/>
        <access friendlyPos="true" lane="749876418#1_0" pos="33.03" length="78.08"/>
        <access friendlyPos="true" lane="830728710#0_0" pos="14.59" length="36.53"/>
    </busStop>
    <busStop id="195430954#0:17.20" lane="195430954#0_1" startPos="4.20" endPos="17.20" friendlyPos="true" name="U Märkisches Museum/Inselstr. (Berlin)"/>
    <busStop id="328426193#0:27.21" lane="328426193#0_2" startPos="14.25" endPos="27.21" friendlyPos="true" name="Fischerinsel (Berlin)"/>
    <busStop id="728838409#0:32.22" lane="728838409#0_1" startPos="19.22" endPos="32.22" friendlyPos="true" name="U Alexanderplatz [Bus]">
        <access friendlyPos="true" lane="100944802#4_0" pos="79.04" length="67.60"/>
        <access friendlyPos="true" lane="100944802#5_0" pos="4.21" length="59.98"/>
        <access friendlyPos="true" lane="346206389#3_0" pos="15.79" length="69.66"/>
        <access friendlyPos="true" lane="346213313#1_0" pos="18.29" length="53.79"/>
        <access friendlyPos="true" lane="346213313#2_0" pos="4.71" length="42.21"/>
        <access friendlyPos="true" lane="832173068#0_0" pos="1.50" length="69.10"/>
        <access friendlyPos="true" lane="832173068#1_0" pos="31.95" length="38.76"/>
        <access friendlyPos="true" lane="832173068#2_0" pos="0.00" length="53.16"/>
        <access friendlyPos="true" lane="890972133_0" pos="0.19" length="73.28"/>
        <access friendlyPos="true" lane="890972134#2_0" pos="0.20" length="75.26"/>
    </busStop>
    <busStop id="4773465#1:13.00" lane="4773465#1_1" startPos="0.00" endPos="13.00" friendlyPos="true" name="Spandauer Str./Marienkirche (Berlin)">
        <access friendlyPos="true" lane="171826987#0_0" pos="2.36" length="51.44"/>
        <access friendlyPos="true" lane="171826987#4_0" pos="0.00" length="43.25"/>
        <access friendlyPos="true" lane="171826987#5_0" pos="0.00" length="50.51"/>
        <access friendlyPos="true" lane="24913519#1_0" pos="0.00" length="37.06"/>
        <access friendlyPos="true" lane="375901768#0_0" pos="0.20" length="42.90"/>
        <access friendlyPos="true" lane="375901768#2_0" pos="0.00" length="38.96"/>
        <access friendlyPos="true" lane="375901769#1_0" pos="0.20" length="50.06"/>
        <access friendlyPos="true" lane="375901774#2_0" pos="0.00" length="43.95"/>
        <access friendlyPos="true" lane="375901784_0" pos="0.21" length="45.66"/>
        <access friendlyPos="true" lane="72157174#1_0" pos="0.00" length="47.29"/>
    </busStop>
    <busStop id="743631784#0:19.24" lane="743631784#0_0" startPos="6.24" endPos="19.24" friendlyPos="true" name="S Hackescher Markt (Berlin)">
        <access friendlyPos="true" lane="1018271757_0" pos="3.91" length="9.31"/>
        <access friendlyPos="true" lane="304514893#3_0" pos="42.95" length="16.09"/>
        <access friendlyPos="true" lane="377110614_0" pos="0.00" length="17.62"/>
        <access friendlyPos="true" lane="377110615_0" pos="0.00" length="16.61"/>
        <access friendlyPos="true" lane="377110617_0" pos="2.91" length="16.51"/>
        <access friendlyPos="true" lane="377110621#0_0" pos="0.00" length="11.09"/>
        <access friendlyPos="true" lane="377110621#1_0" pos="0.00" length="14.67"/>
        <access friendlyPos="true" lane="377110621#2_0" pos="0.00" length="19.14"/>
        <access friendlyPos="true" lane="377110622#1_0" pos="26.24" length="24.60"/>
        <access friendlyPos="true" lane="377110622#2_0" pos="0.00" length="24.44"/>
    </busStop>
    <busStop id="72157174#1:13.00" lane="72157174#1_1" startPos="0.00" endPos="13.00" friendlyPos="true" name="Spandauer Str./Marienkirche (Berlin)"/>
    <busStop id="19801618#0:13.00" lane="19801618#0_1" startPos="0.00" endPos="13.00" friendlyPos="true" name="Otto-Braun-Str./Alexanderplatz (Berlin)">
        <access friendlyPos="true" lane="310185954_0" pos="71.25" length="23.58"/>
        <access friendlyPos="true" lane="310186444_0" pos="0.00" length="0.62"/>
        <access friendlyPos="true" lane="310186556#0_0" pos="0.00" length="10.52"/>
        <access friendlyPos="true" lane="310314582#0_0" pos="0.00" length="20.14"/>
        <access friendlyPos="true" lane="310314712_0" pos="10.34" length="2.04"/>
        <access friendlyPos="true" lane="312128179#2_0" pos="8.49" length="30.26"/>
        <access friendlyPos="true" lane="677412318#0_0" pos="0.20" length="30.86"/>