<?xml version="1.0" encoding="UTF-8"?>

<!-- generated on 2025-09-26 09:00:46.690019 by Eclipse SUMO gtfs2pt.py v1_24_0+1016-c5eebb90b17
<configuration>
    <gtfs value="data/GTFS_VBB_Mitte_20190713.zip"/>
    <date value="20190713"/>
    <network value="test/osm.net.xml.gz"/>
</configuration>
-->

<routes xmlns:xsi="http://www.w3.org/2001/XMLSchema-instance" xsi:noNamespaceSchemaLocation="http://sumo.dlr.de/xsd/routes_file.xsd">
    <route id="114180574" edges="1113401735#1 139877314#1 783042668 310357283#2 112128419#1 112128419#2 415280722 195401013#2 171826985#2 72157174#1 171826984#2 195401006 1113401735#1 139877314#1 783042668 310357283#2 112128419#1 112128419#2 415280722 195401013#2 171826985#2 1395686814#1 1144362247 541763975 202156995 4067932 339201219 831694400#0 831694400#1 23013165 4611698 202156994#0 1395686814#1 1144362247 541763975 202156995 4067932 339201219 541763974 61584187#0 61584187#1 1126245113 15971197 4611699#0 4611699#1 1149417521#1 169195795#0 169195795#1 340498982#0 169195795#0 169195795#1 1217865061#0 1113726463 1077923225#0 882389494#1 340498988#0 -461526153#0 461526153#0 188386313#1 1119935327#0 1119935327#1 1119935543#0 1119936840#1 1119937599#3">
        <stop busStop="114180574.0" duration="10" until="0"/> <!-- Berlin, S+U Alexanderplatz Bhf/Memhardstr. (Berlin) -->
        <stop busStop="114180574.1" duration="10" until="30"/> <!-- Berlin, S+U Alexanderplatz Bhf/Memhardstr. (Berlin) -->
        <stop busStop="114180574.2" duration="10" until="120"/> <!-- S+U Alexanderplatz (Bln) [Bus K.-Liebknecht-Str] -->
        <stop busStop="114180574.3" duration="10" until="180"/> <!-- Berlin, Spandauer Str./Marienkirche -->
        <stop busStop="114180574.4" duration="10" until="240"/> <!-- Berlin, Lustgarten -->
        <stop busStop="114180574.5" duration="10" until="300"/> <!-- Berlin, Staatsoper -->
        <stop busStop="114180574.6" duration="10" until="420"/> <!-- Berlin, Unter den Linden/Friedrichstr. -->
        <stop busStop="114180574.7" duration="10" until="480"/> <!-- S+U Brandenburger Tor (Berlin) -->
    </route>
    <route id="114180848" edges="24240246#0 1125871262#1 1125871619#1 1125871619#3 1125871619#4 1170522574 236092221#0 236092221#1 342968607#1 1170522572#0 461526153#0 -461526153#0 461526152#1 1126234503#0 1126237668#1 1079495669#1 340498982#0 1170522567#0 251884680#0 251884680#1 1126246695#1 339201217 1126244314#0 1126244314#1 54048862#2 831694400#0 831694400#1 23013165 4611698 202156994#0 72157174#1 171826984#2 195401006 1113401735#1">
        <stop busStop="114180848.1" duration="10" until="0"/> <!-- S+U Brandenburger Tor (Berlin) -->
        <stop busStop="114180848.2" duration="10" until="120"/> <!-- Berlin, Unter den Linden/Friedrichstr. -->
        <stop busStop="114180574.5" duration="10" until="240"/> <!-- Berlin, Staatsoper -->
        <stop busStop="114180848.4" duration="10" until="300"/> <!-- Berlin, Lustgarten -->
        <stop busStop="114180574.3" duration="10" until="360"/> <!-- Berlin, Spandauer Str./Marienkirche -->
        <stop busStop="114180574.0" duration="10" until="480"/> <!-- Berlin, S+U Alexanderplatz Bhf/Memhardstr. (Berlin) -->
    </route>
    <route id="114180850" edges="24240246#0 1125871262#1 1125871619#1 1125871619#3 1125871619#4 1170522574 236092221#0 236092221#1 342968607#1 1170522572#0 461526153#0 -461526153#0 461526152#1 1126234503#0 1126237668#1 1079495669#1 340498982#0 1170522567#0 251884680#0 251884680#1 1126246695#1 339201217 1126244314#0 1126244314#1 54048862#2 831694400#0 831694400#1 23013165 4611698 202156994#0 72157174#1 171826984#2 195401006 1113401735#1">
        <stop busStop="114180848.1" duration="10" until="0"/> <!-- S+U Brandenburger Tor (Berlin) -->
        <stop busStop="114180848.2" duration="10" until="120"/> <!-- Berlin, Unter den Linden/Friedrichstr. -->
        <stop busStop="114180574.5" duration="10" until="240"/> <!-- Berlin, Staatsoper -->
        <stop busStop="114180848.4" duration="10" until="300"/> <!-- Berlin, Lustgarten -->
        <stop busStop="114180574.3" duration="10" until="360"/> <!-- Berlin, Spandauer Str./Marienkirche -->
        <stop busStop="114180574.0" duration="10" until="480"/> <!-- Berlin, S+U Alexanderplatz Bhf/Memhardstr. (Berlin) -->
    </route>
    <route id="114193955" edges="300401898 1101404262#1 24914141#1 24914141#2 24914141#4 24914141#5 1133761630#0 1133761630#1 1323456348#1 1323456348#2 1323456348#3 1323456348#4 1323456348#5 4613299#2 4613299#3 -4613300#6 -4613300#5 -4613300#4 -4613300#3 -4613300#2 -4613300#1 -4613300#0 4613300#0 4613300#1 4613300#2 4613300#3 4613300#4 4613300#5 4613300#6 -4613299#3 -4613299#2 -4613299#1 -4613299#0 -1098856743#1 369223458#2 369223458#3 1157111072#1 1115509343#0 1115509343#1 1115509343#2 1396608575 1396608576#0 1396608576#1 19002357#1 1396813567 1179820253#0 1179820253#1 1179820254#3 19002363#1 19002363#2 1396211787#1 1396211788#1 24241790#2 24241790#4 1244944838 1182703554#0 1182703456#0 -755340907#1 -1423202679 -847103786#3 -847103786#2 -847103786#0 -1157396753 4296468#1 4296468#2 4296468#3 238682696">
        <stop busStop="114193955.10" duration="10" until="0"/> <!-- Berlin, Mollstr./Prenzlauer Allee -->
        <stop busStop="114193955.11" duration="10" until="120"/> <!-- U Rosa-Luxemburg-Platz (Berlin) -->
        <stop busStop="114193955.12" duration="10" until="240"/> <!-- U Rosenthaler Platz (Berlin) -->
    </route>
    <route id="114194036.trimmed" edges="300401898 1101404262#1 24914141#1 24914141#2 24914141#4 24914141#5 1133761630#0 1133761630#1 1323456348#1 1323456348#2 1323456348#3 1323456348#4 1323456348#5 4613299#2 4613299#3 -4613300#6 -4613300#5 -4613300#4 -4613300#3 -4613300#2 -4613300#1 -4613300#0 4613300#0 4613300#1 4613300#2 4613300#3 4613300#4 4613300#5 4613300#6 -4613299#3 -4613299#2 -4613299#1 -4613299#0 -1098856743#1 369223458#2 369223458#3 1157111072#1 1115509343#0 1115509343#1 1115509343#2 1396608575 1396608576#0 1396608576#1 19002357#1 1396813567 1179820253#0 1179820253#1 1179820254#3 19002363#1 19002363#2 1396211787#1 1396211788#1 24241790#2 24241790#4 1244944838 1182703554#0 1182703456#0 -755340907#1 -1423202679 -847103786#3 -847103786#2 -847103786#0 -1157396753 4296468#1 4296468#2 4296468#3 238682696">
        <stop busStop="114193955.10" duration="10" until="0"/> <!-- Berlin, Mollstr./Prenzlauer Allee -->
        <stop busStop="114193955.11" duration="10" until="120"/> <!-- U Rosa-Luxemburg-Platz (Berlin) -->
        <stop busStop="114193955.12" duration="10" until="180"/> <!-- U Rosenthaler Platz (Berlin) -->
    </route>
    <route id="114194096" edges="713576589#0 713576589#1 713576589#2 312651888#1 312651888#2 312651888#3 312651888#4 312651888#5 268002745#2 1353005053#0 1353005053#1 -4396823#5 -4396823#4 -4396823#3 -4396823#2 -4396823#0 -165415464#1 165415454#0 165415454#1 165415454#2 -1216575599 -36689633#2 -36689633#1 -36689633#0 -980542375#1 4296467#1 4610354#1 4610354#2 4610354#3 4610354#4 4610354#5 1157396753 847103786#0 847103786#2 847103786#3 1423202679 755340907#0 -1225924291#1 -371927739#3 -1119855803#1 -1119855803#0 -4296469#2 -4296469#0 4296469#0 4296469#2 1119855803#0 1119855803#1 371927739#3 371927739#4 -1182703456#1 -1182703554#1 -1244944838 -24241790#4 -24241790#3 -1396211788#2 -1396211788#0 -1396211787#0 -19002363#1 -19002363#0 -1179820254#0 -1179820253#0 -1179820019#0 4613292#0 -24993933#1 -1396608576#0 -1396608575 -1115509343#2 -1115509343#1 -1115509343#0 -1157111072#1 -369223458#3 -369223458#2 1098856743#1 4613299#0 4613299#1 4613299#2 4613299#3 -4613300#6 -4613300#5 -4613300#4 -4613300#3 -4613300#2 -4613300#1 -4613300#0 4613300#0 4613300#1 4613300#2 4613300#3 4613300#4 4613300#5 4613300#6 -4613299#3 -4613299#2 -1323456348#5 -1323456348#4 -1323456348#3 -1323456348#2 -1323456348#1 -268002748#0 -1133761630#0 24914141#8 318282850#2 1105526112#1 112128418#2 112128418#4 457031289 1020548406 1101404246#1 177372522 295445243">
        <stop busStop="114194096.4" duration="10" until="0"/> <!-- Berlin, Tucholskystr. -->
        <stop busStop="114194096.5" duration="10" until="180"/> <!-- U Rosenthaler Platz (Berlin) -->
        <stop busStop="114193955.11" duration="10" until="300"/> <!-- U Rosa-Luxemburg-Platz (Berlin) -->
        <stop busStop="114194096.7" duration="10" until="420"/> <!-- Berlin, Mollstr./Prenzlauer Allee -->
        <stop busStop="114194096.8" duration="10" until="480"/> <!-- Berlin, Mollstr./Otto-Braun-Str. -->
    </route>
    <route id="114194382" edges="-176043807#4 -176043807#0 -176043806#2 -176043806#1 -176043806#0 -1100824590#1 -1100824590#0 -111251382#3 -111251382#2 541295978#1 1097921784#1 -541295974#0 -222328410 34848160#2 1151064405#1 194073677#0 194073677#1 194073677#2 194073677#3 194073677#4 190447768#1 195411602#0 195411602#1 465376240#0 195411604 11483007#0 -1119933622 -461526153#0 461526153#0 -461526153#0 -194069450#1 -882389497 -1427117336#0 171423001#0 171423001#1 171423001#2 1190781963#1 35557143#2 35557143#3 1426897598#3 1426897601#1 66071366#1 66071366#2 66071366#3 1127602336#1 23755950 1423958086#0 1423958087#2 1423958093#0 1423958093#1 4611696#1 8008608 -1263204721 -120675240#4 -120675240#3 -120675240#2 -43156728#1 -1127596842#0 -1127597264#0 -755551646#0 -52328295#2 -52328295#0 -37289106 -328426193#2 -328426193#1 -1102369963#1 -1102369963#0 -1102369964 -30705211#1 -30705211#0 -1040934262#1 -1040934262#0 339201210 4612414#0 4612414#1 -4612414#1">
        <stop busStop="114194382.3" duration="10" until="0"/> <!-- Berlin, Deutsches Theater -->
        <stop busStop="114194382.4" duration="10" until="60"/> <!-- Berlin, Friedrichstr./Reinhardtstr. -->
        <stop busStop="114194382.5" duration="10" until="180"/> <!-- S+U Friedrichstr. Bhf (Berlin) -->
        <stop busStop="114194382.6" duration="10" until="360"/> <!-- Berlin, Unter den Linden/Friedrichstr. -->
        <stop busStop="114194382.7" duration="10" until="420"/> <!-- U Französische Str. (Berlin) -->
        <stop busStop="114194382.8" duration="10" until="540"/> <!-- Berlin, Werderscher Markt -->
        <stop busStop="114194382.9" duration="10" until="600"/> <!-- Berlin, Neumannsgasse -->
        <stop busStop="114194382.10" duration="10" until="720"/> <!-- Berlin, Fischerinsel. -->
        <stop busStop="114194382.11" duration="10" until="780"/> <!-- U Märkisches Museum (Berlin) -->
    </route>
    <route id="114194392" edges="-176043807#4 -176043807#0 -176043806#2 -176043806#1 -176043806#0 -1100824590#1 -1100824590#0 -111251382#3 -111251382#2 541295978#1 1097921784#1 -541295974#0 -222328410 34848160#2 1151064405#1 194073677#0 194073677#1 194073677#2 194073677#3 194073677#4 190447768#1 195411602#0 195411602#1 465376240#0 195411604 11483007#0 -1119933622 -461526153#0 461526153#0 -461526153#0 -194069450#1 -882389497 -1427117336#0 171423001#0 171423001#1 171423001#2 1190781963#1 35557143#2 35557143#3 1426897598#3 1426897601#1 66071366#1 66071366#2 66071366#3 1127602336#1 23755950 1423958086#0 1423958087#2 1423958093#0 1423958093#1 4611696#1 8008608 -1263204721 -120675240#4 -120675240#3 -120675240#2 -43156728#1 -1127596842#0 -1127597264#0 -755551646#0 -52328295#2 -52328295#0 -37289106 -328426193#2 -328426193#1 -1102369963#1 -1102369963#0 -1102369964 -30705211#1 -30705211#0 -1040934262#1 -1040934262#0 339201210 4612414#0 4612414#1 -4612414#1">
        <stop busStop="114194382.3" duration="10" until="0"/> <!-- Berlin, Deutsches Theater -->
        <stop busStop="114194382.4" duration="10" until="60"/> <!-- Berlin, Friedrichstr./Reinhardtstr. -->
        <stop busStop="114194382.5" duration="10" until="180"/> <!-- S+U Friedrichstr. Bhf (Berlin) -->
        <stop busStop="114194382.6" duration="10" until="360"/> <!-- Berlin, Unter den Linden/Friedrichstr. -->
        <stop busStop="114194382.7" duration="10" until="420"/> <!-- U Französische Str. (Berlin) -->
        <stop busStop="114194382.8" duration="10" until="540"/> <!-- Berlin, Werderscher Markt -->
        <stop busStop="114194382.9" duration="10" until="600"/> <!-- Berlin, Neumannsgasse -->
        <stop busStop="114194382.10" duration="10" until="720"/> <!-- Berlin, Fischerinsel. -->
        <stop busStop="114194382.11" duration="10" until="780"/> <!-- U Märkisches Museum (Berlin) -->
    </route>
    <route id="114194407" edges="-176043807#4 -176043807#0 -176043806#2 -176043806#1 -176043806#0 -1100824590#1 -1100824590#0 -111251382#3 -111251382#2 541295978#1 1097921784#1 -541295974#0 -222328410 34848160#2 1151064405#1 194073677#0 194073677#1 194073677#2 194073677#3 194073677#4 190447768#1 195411602#0 195411602#1 465376240#0 195411604 11483007#0 -1119933622 -461526153#0 461526153#0 -461526153#0 -194069450#1 -882389497 -1427117336#0 171423001#0 171423001#1 171423001#2 1190781963#1 35557143#2 35557143#3 1426897598#3 1426897601#1 66071366#1 66071366#2 66071366#3 1127602336#1 23755950 1423958086#0 1423958087#2 1423958093#0 1423958093#1 4611696#1 8008608 -1263204721 -120675240#4 -120675240#3 -120675240#2 -43156728#1 -1127596842#0 -1127597264#0 -755551646#0 -52328295#2 -52328295#0 -37289106 -328426193#2 -328426193#1 -1102369963#1 -1102369963#0 -1102369964 -30705211#1 -30705211#0 -1040934262#1 -1040934262#0 339201210 4612414#0 4612414#1 22954357#0 22954357#1 328426253 458953719#0 328426256#0 328426256#1 328426256#2 -195430954#1 -195430954#0 195430954#0 195430954#1 328426251#1 328426251#2 -458953719#0 -1102369972 328426258#1 -4612414#1">
        <stop busStop="114194382.3" duration="10" until="0"/> <!-- Berlin, Deutsches Theater -->
        <stop busStop="114194382.4" duration="10" until="30"/> <!-- Berlin, Friedrichstr./Reinhardtstr. -->
        <stop busStop="114194382.5" duration="10" until="150"/> <!-- S+U Friedrichstr. Bhf (Berlin) -->
        <stop busStop="114194382.6" duration="10" until="270"/> <!-- Berlin, Unter den Linden/Friedrichstr. -->
        <stop busStop="114194382.7" duration="10" until="330"/> <!-- U Französische Str. (Berlin) -->
        <stop busStop="114194382.8" duration="10" until="390"/> <!-- Berlin, Werderscher Markt -->
        <stop busStop="114194382.9" duration="10" until="450"/> <!-- Berlin, Neumannsgasse -->
        <stop busStop="114194382.10" duration="10" until="570"/> <!-- Berlin, Fischerinsel. -->
        <stop busStop="114194407.11" duration="10" until="630"/> <!-- U Märkisches Museum/Inselstr. (Berlin) -->
        <stop busStop="114194382.11" duration="10" until="750"/> <!-- U Märkisches Museum (Berlin) -->
    </route>
    <route id="114194483.trimmed" edges="194073677#3 194073677#4 190447768#1 195411602#0 195411602#1 465376240#0 195411604 11483007#0 -1119933622 -461526153#0 461526153#0 -461526153#0 -194069450#1 -882389497 -1427117336#0 171423001#0 171423001#1 171423001#2 1190781963#1 35557143#2 35557143#3 1426897598#3 1426897601#1 66071366#1 66071366#2 66071366#3 1127602336#1 23755950 1423958086#0 1423958087#2 1423958093#0 1423958093#1 4611696#1 8008608 -1263204721 -120675240#4 -120675240#3 -120675240#2 -43156728#1 -1127596842#0 -1127597264#0 -755551646#0 -52328295#2 -52328295#0 -37289106 -328426193#2 -328426193#1 -1102369963#1 -1102369963#0 -1102369964 -30705211#1 -30705211#0 -1040934262#1 -1040934262#0 339201210 4612414#0 4612414#1 22954357#0 22954357#1 328426253 458953719#0 328426256#0 328426256#1 328426256#2 -195430954#1 -195430954#0 195430954#0 195430954#1 328426251#1 328426251#2 -458953719#0 -1102369972 328426258#1 -4612414#1">
        <stop busStop="114194382.5" duration="10" until="0"/> <!-- S+U Friedrichstr. Bhf (Berlin) -->
        <stop busStop="114194382.6" duration="10" until="120"/> <!-- Berlin, Unter den Linden/Friedrichstr. -->
        <stop busStop="114194382.7" duration="10" until="180"/> <!-- U Französische Str. (Berlin) -->
        <stop busStop="114194382.8" duration="10" until="240"/> <!-- Berlin, Werderscher Markt -->
        <stop busStop="114194382.9" duration="10" until="300"/> <!-- Berlin, Neumannsgasse -->
        <stop busStop="114194382.10" duration="10" until="420"/> <!-- Berlin, Fischerinsel. -->
        <stop busStop="114194407.11" duration="10" until="480"/> <!-- U Märkisches Museum/Inselstr. (Berlin) -->
        <stop busStop="114194382.11" duration="10" until="600"/> <!-- U Märkisches Museum (Berlin) -->
    </route>
    <route id="114194484" edges="-176043807#4 -176043807#0 -176043806#2 -176043806#1 -176043806#0 -1100824590#1 -1100824590#0 -111251382#3 -111251382#2 541295978#1 1097921784#1 -541295974#0 -222328410 34848160#2 1151064405#1 194073677#0 194073677#1 194073677#2 194073677#3 194073677#4 190447768#1 195411602#0 195411602#1 465376240#0 195411604 11483007#0 -1119933622 -461526153#0 461526153#0 -461526153#0 -194069450#1 -882389497 -1427117336#0 171423001#0 171423001#1 171423001#2 1190781963#1 35557143#2 35557143#3 1426897598#3 1426897601#1 66071366#1 66071366#2 66071366#3 1127602336#1 23755950 1423958086#0 1423958087#2 1423958093#0 1423958093#1 4611696#1 8008608 -1263204721 -120675240#4 -120675240#3 -120675240#2 -43156728#1 -1127596842#0 -1127597264#0 -755551646#0 -52328295#2 -52328295#0 -37289106 -328426193#2 -328426193#1 -1102369963#1 -1102369963#0 -1102369964 -30705211#1 -30705211#0 -1040934262#1 -1040934262#0 339201210 4612414#0 4612414#1 22954357#0 22954357#1 328426253 458953719#0 328426256#0 328426256#1 328426256#2 -195430954#1 -195430954#0 195430954#0">
        <stop busStop="114194382.3" duration="10" until="0"/> <!-- Berlin, Deutsches Theater -->
        <stop busStop="114194382.4" duration="10" until="60"/> <!-- Berlin, Friedrichstr./Reinhardtstr. -->
        <stop busStop="114194382.5" duration="10" until="180"/> <!-- S+U Friedrichstr. Bhf (Berlin) -->
        <stop busStop="114194382.6" duration="10" until="300"/> <!-- Berlin, Unter den Linden/Friedrichstr. -->
        <stop busStop="114194382.7" duration="10" until="360"/> <!-- U Französische Str. (Berlin) -->
        <stop busStop="114194382.8" duration="10" until="420"/> <!-- Berlin, Werderscher Markt -->
        <stop busStop="114194382.9" duration="10" until="480"/> <!-- Berlin, Neumannsgasse -->
        <stop busStop="114194382.10" duration="10" until="600"/> <!-- Berlin, Fischerinsel. -->
        <stop busStop="114194407.11" duration="10" until="660"/> <!-- U Märkisches Museum/Inselstr. (Berlin) -->
    </route>
    <route id="114194502" edges="-4612414#1 -4612414#0 -339201210 1040934262#0 1040934262#1 30705211#0 30705211#1 1102369964 1102369963#0 1102369963#1 328426193#0 328426193#2 37289106 52328295#0 52328295#1 1151326815 755551646#1 -1127597264#0 -755551646#0 1151326815 755551646#1 1127597264#1 1127596842#2 120675240#1 120675240#3 120675240#4 1263204721 -8008608 -4611696#1 -4611696#0 -1423958093#0 -1423958090 -1423958086#0 -23755950 -1127602336#1 -66071366#4 -66071366#2 -66071366#1 -66071366#0 -1426897602#0 -1426897598#0 -35557143#2 -35557143#0 196850609#0 196850609#1 196850609#2 1427117337 1427117336#3 194069450#0 461526153#0 169999355#1 -11483007#2 22972195#2 465376239 465376255#0 465376255#2 190447767 190447766#1 1151064403 1151064402#0 465376254#0 465376254#3 34848160#2 1151064405#1 194073677#0 194073677#1 194073677#2 194073677#3 194073677#4 1151064403 1151064402#0 465376254#0 465376254#3 222328410 -6228081#1 30720544#0 30720544#1 42103020#0 42103020#2 111251382#1 111251382#3 1100889498 1100824590#1 176043806#0 176043806#1 176043806#2 176043807#0 176043807#3 -176043807#4 1155226002#0 1155226002#1 1155226002#2 1155226002#3 4592725#0 4592725#1 4592725#2 4592725#3">
        <stop busStop="114194382.11" duration="10" until="0"/> <!-- U Märkisches Museum (Berlin) -->
        <stop busStop="114194502.6" duration="10" until="60"/> <!-- Berlin, Fischerinsel. -->
        <stop busStop="114194382.9" duration="10" until="120"/> <!-- Berlin, Neumannsgasse -->
        <stop busStop="114194502.8" duration="10" until="180"/> <!-- Berlin, Werderscher Markt -->
        <stop busStop="114194502.9" duration="10" until="300"/> <!-- U Französische Str. (Berlin) -->
        <stop busStop="114194502.10" duration="10" until="480"/> <!-- Berlin, Unter den Linden/Friedrichstr. -->
        <stop busStop="114194382.5" duration="10" until="600"/> <!-- S+U Friedrichstr. Bhf (Berlin) -->
        <stop busStop="114194502.12" duration="10" until="660"/> <!-- Berlin, Friedrichstr./Reinhardtstr. -->
        <stop busStop="114194382.3" duration="10" until="720"/> <!-- Berlin, Deutsches Theater -->
        <stop busStop="114194502.14" duration="10" until="780"/> <!-- Berlin, Schumannstr. -->
    </route>
    <route id="114194503" edges="-132600840#0 132600840#0 132600840#1 1125871619#3 1125871619#4 1170522574 236092221#0 236092221#1 342968607#1 1170522572#0 461526153#0 169999355#1 -11483007#2 22972195#2 465376239 465376255#0 465376255#2 190447767 190447766#1 1151064403 1151064402#0 465376254#0 465376254#3 34848160#2 1151064405#1 194073677#0 194073677#1 194073677#2 194073677#3 194073677#4 1151064403 1151064402#0 465376254#0 465376254#3 222328410 -6228081#1 30720544#0 30720544#1 42103020#0 42103020#2 111251382#1 111251382#3 1100889498 1100824590#1 176043806#0 176043806#1 176043806#2 176043807#0 176043807#3 -176043807#4 1155226002#0 1155226002#1 1155226002#2 1155226002#3 4592725#0 4592725#1 4592725#2 4592725#3">
        <stop busStop="114194503.0" duration="10" until="0"/> <!-- S+U Brandenburger Tor/Glinkastr. (Berlin) -->
        <stop busStop="114194503.1" duration="10" until="60"/> <!-- Berlin, Unter den Linden/Friedrichstr. -->
        <stop busStop="114194382.5" duration="10" until="180"/> <!-- S+U Friedrichstr. Bhf (Berlin) -->
        <stop busStop="114194502.12" duration="10" until="240"/> <!-- Berlin, Friedrichstr./Reinhardtstr. -->
        <stop busStop="114194382.3" duration="10" until="300"/> <!-- Berlin, Deutsches Theater -->
        <stop busStop="114194502.14" duration="10" until="360"/> <!-- Berlin, Schumannstr. -->
    </route>
    <route id="114194513" edges="-4612414#1 -4612414#0 -339201210 1040934262#0 1040934262#1 30705211#0 30705211#1 1102369964 1102369963#0 1102369963#1 328426193#0 328426193#2 37289106 52328295#0 52328295#1 1151326815 755551646#1 -1127597264#0 -755551646#0 1151326815 755551646#1 1127597264#1 1127596842#2 120675240#1 120675240#3 120675240#4 1263204721 -8008608 -4611696#1 -4611696#0 -1423958093#0 -1423958090 -1423958086#0 -23755950 -1127602336#1 -66071366#4 -66071366#2 -66071366#1 -66071366#0 -1426897602#0 -1426897598#0 -35557143#2 -35557143#0 196850609#0 196850609#1 196850609#2 1427117337 1427117336#3 194069450#0 461526153#0 169999355#1 -11483007#2 22972195#2 465376239 465376255#0 465376255#2 190447767 190447766#1 1151064403 1151064402#0 465376254#0 465376254#3 34848160#2 1151064405#1 194073677#0 194073677#1 194073677#2 194073677#3 194073677#4 1151064403 1151064402#0 465376254#0 465376254#3 222328410 -6228081#1 30720544#0 30720544#1 42103020#0 42103020#2 111251382#1 111251382#3 1100889498 1100824590#1 176043806#0 176043806#1 176043806#2 176043807#0 176043807#3 -176043807#4 1155226002#0 1155226002#1 1155226002#2 1155226002#3 4592725#0 4592725#1 4592725#2 4592725#3">
        <stop busStop="114194382.11" duration="10" until="0"/> <!-- U Märkisches Museum (Berlin) -->
        <stop busStop="114194502.6" duration="10" until="60"/> <!-- Berlin, Fischerinsel. -->
        <stop busStop="114194382.9" duration="10" until="120"/> <!-- Berlin, Neumannsgasse -->
        <stop busStop="114194502.8" duration="10" until="180"/> <!-- Berlin, Werderscher Markt -->
        <stop busStop="114194502.9" duration="10" until="300"/> <!-- U Französische Str. (Berlin) -->
        <stop busStop="114194502.10" duration="10" until="480"/> <!-- Berlin, Unter den Linden/Friedrichstr. -->
        <stop busStop="114194382.5" duration="10" until="600"/> <!-- S+U Friedrichstr. Bhf (Berlin) -->
        <stop busStop="114194502.12" duration="10" until="660"/> <!-- Berlin, Friedrichstr./Reinhardtstr. -->
        <stop busStop="114194382.3" duration="10" until="720"/> <!-- Berlin, Deutsches Theater -->
        <stop busStop="114194502.14" duration="10" until="780"/> <!-- Berlin, Schumannstr. -->
    </route>
    <route id="114194534" edges="-4612414#1 -4612414#0 -339201210 1040934262#0 1040934262#1 30705211#0 30705211#1 1102369964 1102369963#0 1102369963#1 328426193#0 328426193#2 37289106 52328295#0 52328295#1 1151326815 755551646#1 -1127597264#0 -755551646#0 1151326815 755551646#1 1127597264#1 1127596842#2 120675240#1 120675240#3 120675240#4 1263204721 -8008608 -4611696#1 -4611696#0 -1423958093#0 -1423958090 -1423958086#0 -23755950 -1127602336#1 -66071366#4 -66071366#2 -66071366#1 -66071366#0 -1426897602#0 -1426897598#0 -35557143#2 -35557143#0 196850609#0 196850609#1 196850609#2 1427117337 1427117336#3 194069450#0 461526153#0 169999355#1 -11483007#2 22972195#2 465376239 465376255#0 465376255#2 190447767 190447766#1 1151064403 1151064402#0 465376254#0 465376254#3 34848160#2 1151064405#1 194073677#0 194073677#1 194073677#2 194073677#3 194073677#4 1151064403 1151064402#0 465376254#0 465376254#3 222328410 -6228081#1 30720544#0 30720544#1 42103020#0 42103020#2 111251382#1 111251382#3 1100889498 1100824590#1 176043806#0 176043806#1 176043806#2 176043807#0 176043807#3 -176043807#4 1155226002#0 1155226002#1 1155226002#2 1155226002#3 4592725#0 4592725#1 4592725#2 4592725#3">
        <stop busStop="114194382.11" duration="10" until="0"/> <!-- U Märkisches Museum (Berlin) -->
        <stop busStop="114194534.1" duration="10" until="30"/> <!-- U Märkisches Museum (Berlin) -->
        <stop busStop="114194502.6" duration="10" until="60"/> <!-- Berlin, Fischerinsel. -->
        <stop busStop="114194382.9" duration="10" until="120"/> <!-- Berlin, Neumannsgasse -->
        <stop busStop="114194502.8" duration="10" until="180"/> <!-- Berlin, Werderscher Markt -->
        <stop busStop="114194502.9" duration="10" until="300"/> <!-- U Französische Str. (Berlin) -->
        <stop busStop="114194502.10" duration="10" until="420"/> <!-- Berlin, Unter den Linden/Friedrichstr. -->
        <stop busStop="114194382.5" duration="10" until="540"/> <!-- S+U Friedrichstr. Bhf (Berlin) -->
        <stop busStop="114194502.12" duration="10" until="600"/> <!-- Berlin, Friedrichstr./Reinhardtstr. -->
        <stop busStop="114194382.3" duration="10" until="660"/> <!-- Berlin, Deutsches Theater -->
        <stop busStop="114194502.14" duration="10" until="720"/> <!-- Berlin, Schumannstr. -->
    </route>
    <route id="114199375" edges="-4612431#2 4612431#0 4612431#3 -62745347#0 -195430959#2 -195430959#1 -195430959#0 -195430960#3 -195430960#2 -195430960#1 -195430960#0 -511748316 -4612422#0 195430954#0 195430954#1 328426251#1 328426251#2 -458953719#0 -1102369972 328426258#1 -4612414#1">
        <stop busStop="114199375.6" duration="10" until="0"/> <!-- U Heinrich-Heine-Str. (Berlin) -->
        <stop busStop="114194382.11" duration="10" until="120"/> <!-- U Märkisches Museum (Berlin) -->
    </route>
    <route id="114199501" edges="4612414#1 22954357#0 22954357#1 328426253 458953719#0 328426256#0 328426256#1 328426256#2 -195430954#1 -195430954#0 4612422#0 511748316 195430960#0 195430960#1 195430960#2 195430960#3 195430959#0 195430959#1 195430959#2 195430959#3 -4612431#3 -4612431#2">
        <stop busStop="114199501.0" duration="10" until="0"/> <!-- U Märkisches Museum (Berlin) -->
        <stop busStop="114199501.1" duration="10" until="30"/> <!-- U Märkisches Museum/Inselstr. (Berlin) -->
        <stop busStop="114199375.6" duration="10" until="120"/> <!-- U Heinrich-Heine-Str. (Berlin) -->
    </route>
    <route id="114208941" edges="300401898 1101404262#1 24914141#1 24914141#2 24914141#4 24914141#5 24914141#8 318282850#2 112128419#1 112128419#2 415280722 195401013#2 171826985#2 72157174#1 171826984#2 195401006 1113401735#1 139877314#1 783042668 310357283#2 112128419#1 112128419#2 415280722 195401013#2 171826985#2 72157174#1 171826984#2 195401006 1113401735#1 139877314#1 783042668 310357283#2 112128419#1 112128419#2 415280722 195401013#2 171826985#2 1395686814#1 1144362247 541763975 202156995 4067932 339201219 831694400#0 831694400#1 23013165 4611698 202156994#0 1395686814#1 1144362247 541763975 202156995 4067932 339201219 541763974 61584187#0 61584187#1 1126245113 15971197 4611699#0 4611699#1 1149417521#1 169195795#0 169195795#1 340498982#0 169195795#0 169195795#1 1217865061#0 1113726463 1077923225#0 882389494#1 340498988#0 -461526153#0 461526153#0 188386313#1 1119935327#0 1119935327#1 1119935543#0 155186522#0 155186522#1 24913267#1 24913267#3 326116286#0 1423403178#1 4402014#1 326116285#1 326116285#2 326116285#3 326116285#4 4401967#1 335462916 85255870#0 85255869#1 1110752486 1110752632 1425266391 -710761407#2">
        <stop busStop="114193955.10" duration="10" until="0"/> <!-- Berlin, Mollstr./Prenzlauer Allee -->
        <stop busStop="114180574.0" duration="10" until="120"/> <!-- Berlin, S+U Alexanderplatz Bhf/Memhardstr. (Berlin) -->
        <stop busStop="114180574.2" duration="10" until="240"/> <!-- S+U Alexanderplatz (Bln) [Bus K.-Liebknecht-Str] -->
        <stop busStop="114180574.3" duration="10" until="300"/> <!-- Berlin, Spandauer Str./Marienkirche -->
        <stop busStop="114180574.4" duration="10" until="420"/> <!-- Berlin, Lustgarten -->
        <stop busStop="114180574.5" duration="10" until="540"/> <!-- Berlin, Staatsoper -->
        <stop busStop="114180574.6" duration="10" until="660"/> <!-- Berlin, Unter den Linden/Friedrichstr. -->
        <stop busStop="114208941.12" duration="10" until="900"/> <!-- Berlin, Behrenstr./Wilhelmstr. -->
        <stop busStop="114208941.13" duration="10" until="960"/> <!-- U Mohrenstr. (Berlin) -->
    </route>
    <route id="114209086.trimmed" edges="335462916 85255870#0 85255869#1 1110752486 1110752632 1425266391 -710761407#2">
        <stop busStop="114208941.12" duration="10" until="0"/> <!-- Berlin, Behrenstr./Wilhelmstr. -->
        <stop busStop="114208941.13" duration="10" until="60"/> <!-- U Mohrenstr. (Berlin) -->
    </route>