<?xml version="1.0" encoding="UTF-8"?>

<!-- generated on Fri Sep  1 10:36:24 2017 by SUMO Version dev-SVN-r25783
<?xml version="1.0" encoding="UTF-8"?>

<configuration xmlns:xsi="http://www.w3.org/2001/XMLSchema-instance" xsi:noNamespaceSchemaLocation="http://sumo.dlr.de/xsd/sumoConfiguration.xsd">

    <input>
        <net-file value="motorway.net.xml"/>
        <route-files value="input_routes.rou.xml"/>
        <additional-files value="input_additional.add.xml"/>
    </input>

    <output>
        <lanechange-output value="lanechanges.xml"/>
    </output>

    <report>
        <verbose value="true"/>
        <xml-validation value="never"/>
        <duration-log.statistics value="true"/>
        <no-step-log value="true"/>
    </report>

</configuration>
-->

<lanechanges>
    <change id="onRamp.0" type="t0" time="12.00" from="merge_0" to="merge_1" dir="1" speed="29.47" reason="strategic|urgent" leaderGap="64.66" leaderSecureGap="0.00" followerGap="33.84" followerSecureGap="28.75"/>
    <change id="main.10" type="t0" time="17.00" from="beg2_0" to="beg2_1" dir="1" speed="38.49" reason="speedGain" leaderGap="90.24" leaderSecureGap="65.77" followerGap="38.75" followerSecureGap="8.48"/>
    <change id="onRamp.1" type="t0" time="20.00" from="merge_0" to="merge_1" dir="1" speed="26.98" reason="strategic|urgent" leaderGap="36.57" leaderSecureGap="10.93" followerGap="192.15" followerSecureGap="57.47"/>
    <change id="onRamp.2" type="t0" time="23.00" from="merge_0" to="merge_1" dir="1" speed="28.22" reason="strategic|urgent" leaderGap="90.74" leaderSecureGap="15.60" followerGap="91.72" followerSecureGap="51.63"/>
    <change id="main.16" type="t0" time="30.00" from="beg2_0" to="beg2_1" dir="1" speed="35.58" reason="cooperative|urgent" leaderGap="103.13" leaderSecureGap="36.92" followerGap="35.66" followerSecureGap="25.33"/>
    <change id="onRamp.3" type="t0" time="31.00" from="merge_0" to="merge_1" dir="1" speed="14.78" reason="strategic|urgent" leaderGap="8.19" leaderSecureGap="0.00" followerGap="183.69" followerSecureGap="111.62"/>
    <change id="onRamp.4" type="t0" time="32.00" from="merge_0" to="merge_1" dir="1" speed="21.72" reason="strategic|urgent" leaderGap="41.83" leaderSecureGap="38.88" followerGap="122.62" followerSecureGap="83.93"/>
    <change id="main.26" type="t0" time="45.00" from="beg2_0" to="beg2_1" dir="1" speed="40.96" reason="cooperative|urgent" leaderGap="108.64" leaderSecureGap="74.35" followerGap="54.77" followerSecureGap="0.00"/>
    <change id="onRamp.5" type="t0" time="46.00" from="merge_0" to="merge_1" dir="1" speed="2.78" reason="strategic|urgent" leaderGap="54.21" leaderSecureGap="0.00" followerGap="188.35" followerSecureGap="150.50"/>
    <change id="main.28" type="t0" time="49.00" from="merge_1" to="merge_2" dir="1" speed="31.38" reason="cooperative|urgent" leaderGap="31.91" leaderSecureGap="9.39" followerGap="None" followerSecureGap="None"/>
    <change id="onRamp.6" type="t0" time="50.00" from="merge_0" to="merge_1" dir="1" speed="25.28" reason="strategic|urgent" leaderGap="86.99" leaderSecureGap="74.33" followerGap="194.04" followerSecureGap="152.52"/>
    <change id="main.29" type="t0" time="52.00" from="beg2_0" to="beg2_1" dir="1" speed="41.70" reason="speedGain" leaderGap="179.57" leaderSecureGap="105.62" followerGap="87.83" followerSecureGap="0.00"/>
    <change id="onRamp.7" type="t0" time="54.00" from="merge_0" to="merge_1" dir="1" speed="30.69" reason="strategic|urgent" leaderGap="126.16" leaderSecureGap="66.45" followerGap="138.82" followerSecureGap="34.19"/>
    <change id="main.35" type="t0" time="63.00" from="beg2_0" to="beg2_1" dir="1" speed="31.67" reason="cooperative|urgent" leaderGap="50.61" leaderSecureGap="8.73" followerGap="61.69" followerSecureGap="26.99"/>
    <change id="onRamp.8" type="t0" time="64.00" from="merge_0" to="merge_1" dir="1" speed="4.59" reason="strategic|urgent" leaderGap="9.41" leaderSecureGap="0.00" followerGap="173.19" followerSecureGap="118.53"/>
    <change id="onRamp.11" type="t0" time="64.00" from="merge_0" to="merge_1" dir="1" speed="25.39" reason="strategic|urgent" leaderGap="87.96" leaderSecureGap="84.76" followerGap="80.24" followerSecureGap="59.16"/>
    <change id="main.41" type="t0" time="71.00" from="beg2_0" to="beg2_1" dir="1" speed="34.54" reason="speedGain" leaderGap="52.88" leaderSecureGap="45.78" followerGap="107.95" followerSecureGap="44.26"/>
    <change id="onRamp.9" type="t0" time="73.00" from="merge_0" to="merge_1" dir="1" speed="0.00" reason="strategic|urgent" leaderGap="None" leaderSecureGap="None" followerGap="200.38" followerSecureGap="128.90"/>
    <change id="onRamp.10" type="t0" time="76.00" from="merge_0" to="merge_1" dir="1" speed="0.04" reason="strategic|urgent" leaderGap="None" leaderSecureGap="None" followerGap="108.72" followerSecureGap="101.71"/>
    <change id="onRamp.12" type="t0" time="80.00" from="merge_0" to="merge_1" dir="1" speed="12.54" reason="strategic|urgent" leaderGap="30.72" leaderSecureGap="18.14" followerGap="22.54" followerSecureGap="16.11"/>
    <change id="onRamp.13" type="t0" time="82.00" from="merge_0" to="merge_1" dir="1" speed="12.06" reason="strategic|urgent" leaderGap="7.09" leaderSecureGap="3.02" followerGap="17.67" followerSecureGap="10.67"/>
    <change id="main.45" type="t0" time="83.00" from="merge_1" to="merge_2" dir="1" speed="12.78" reason="speedGain" leaderGap="4.82" leaderSecureGap="0.00" followerGap="168.09" followerSecureGap="114.75"/>
    <change id="onRamp.14" type="t0" time="83.00" from="merge_0" to="merge_1" dir="1" speed="14.39" reason="strategic|urgent" leaderGap="24.89" leaderSecureGap="19.83" followerGap="16.96" followerSecureGap="9.95"/>
    <change id="main.47" type="t0" time="83.00" from="merge_1" to="merge_2" dir="1" speed="13.20" reason="speedGain" leaderGap="24.85" leaderSecureGap="14.06" followerGap="138.24" followerSecureGap="113.90"/>
    <change id="main.53" type="t0" time="90.00" from="beg2_0" to="beg2_1" dir="1" speed="34.66" reason="cooperative|urgent" leaderGap="78.26" leaderSecureGap="65.07" followerGap="35.10" followerSecureGap="27.59"/>
    <change id="onRamp.16" type="t0" time="91.00" from="merge_0" to="merge_1" dir="1" speed="23.42" reason="strategic|urgent" leaderGap="48.01" leaderSecureGap="7.45" followerGap="98.59" followerSecureGap="94.64"/>
    <change id="onRamp.15" type="t0" time="94.00" from="merge_0" to="merge_1" dir="1" speed="0.35" reason="strategic|urgent" leaderGap="None" leaderSecureGap="None" followerGap="77.27" followerSecureGap="70.29"/>
    <change id="onRamp.17" type="t0" time="97.00" from="merge_0" to="merge_1" dir="1" speed="7.78" reason="strategic|urgent" leaderGap="17.05" leaderSecureGap="8.52" followerGap="25.14" followerSecureGap="18.13"/>
    <change id="main.65" type="t0" time="103.00" from="beg2_0" to="beg2_1" dir="1" speed="34.64" reason="speedGain" leaderGap="53.28" leaderSecureGap="42.35" followerGap="37.89" followerSecureGap="30.87"/>
    <change id="onRamp.18" type="t0" time="104.00" from="merge_0" to="merge_1" dir="1" speed="12.04" reason="strategic|urgent" leaderGap="3.21" leaderSecureGap="0.00" followerGap="30.95" followerSecureGap="23.95"/>
    <change id="main.67" type="t0" time="107.00" from="beg2_0" to="beg2_1" dir="1" speed="31.06" reason="speedGain" leaderGap="32.01" leaderSecureGap="5.52" followerGap="89.56" followerSecureGap="78.98"/>
    <change id="onRamp.19" type="t0" time="116.00" from="merge_0" to="merge_1" dir="1" speed="24.67" reason="strategic|urgent" leaderGap="3.77" leaderSecureGap="0.00" followerGap="59.80" followerSecureGap="55.85"/>
    <change id="main.77" type="t0" time="121.00" from="beg2_0" to="beg2_1" dir="1" speed="34.67" reason="cooperative|urgent" leaderGap="53.88" leaderSecureGap="39.89" followerGap="44.36" followerSecureGap="22.72"/>
    <change id="onRamp.20" type="t0" time="122.00" from="merge_0" to="merge_1" dir="1" speed="25.06" reason="strategic|urgent" leaderGap="59.73" leaderSecureGap="0.00" followerGap="167.55" followerSecureGap="85.08"/>
    <change id="onRamp.21" type="t0" time="124.00" from="merge_0" to="merge_1" dir="1" speed="24.72" reason="strategic|urgent" leaderGap="47.47" leaderSecureGap="3.23" followerGap="101.82" followerSecureGap="93.57"/>
    <change id="onRamp.22" type="t0" time="126.00" from="merge_0" to="merge_1" dir="1" speed="22.10" reason="strategic|urgent" leaderGap="38.90" leaderSecureGap="0.00" followerGap="56.64" followerSecureGap="50.32"/>
    <change id="onRamp.23" type="t0" time="135.00" from="merge_0" to="merge_1" dir="1" speed="27.94" reason="strategic|urgent" leaderGap="40.75" leaderSecureGap="0.00" followerGap="87.75" followerSecureGap="45.72"/>
    <change id="main.99" type="t0" time="149.00" from="beg2_0" to="beg2_1" dir="1" speed="38.76" reason="cooperative|urgent" leaderGap="59.72" leaderSecureGap="54.51" followerGap="40.54" followerSecureGap="13.30"/>
    <change id="onRamp.26" type="t0" time="150.00" from="merge_0" to="merge_1" dir="1" speed="16.45" reason="strategic|urgent" leaderGap="25.21" leaderSecureGap="0.00" followerGap="182.23" followerSecureGap="139.04"/>
    <change id="main.101" type="t0" time="152.00" from="beg2_0" to="beg2_1" dir="1" speed="32.49" reason="cooperative|urgent" leaderGap="32.91" leaderSecureGap="4.69" followerGap="102.30" followerSecureGap="64.89"/>
    <change id="onRamp.24" type="t0" time="153.00" from="merge_0" to="merge_1" dir="1" speed="0.00" reason="strategic|urgent" leaderGap="None" leaderSecureGap="None" followerGap="258.78" followerSecureGap="163.99"/>
    <change id="onRamp.27" type="t0" time="155.00" from="merge_0" to="merge_1" dir="1" speed="8.68" reason="strategic|urgent" leaderGap="None" leaderSecureGap="None" followerGap="169.83" followerSecureGap="158.25"/>
    <change id="onRamp.25" type="t0" time="158.00" from="merge_0" to="merge_1" dir="1" speed="0.01" reason="strategic|urgent" leaderGap="None" leaderSecureGap="None" followerGap="98.04" followerSecureGap="84.52"/>
    <change id="main.103" type="t0" time="159.00" from="merge_1" to="merge_2" dir="1" speed="21.32" reason="cooperative|urgent" leaderGap="10.09" leaderSecureGap="0.00" followerGap="145.77" followerSecureGap="104.51"/>
    <change id="onRamp.28" type="t0" time="161.00" from="merge_0" to="merge_1" dir="1" speed="6.09" reason="strategic|urgent" leaderGap="None" leaderSecureGap="None" followerGap="92.61" followerSecureGap="79.82"/>
    <change id="onRamp.29" type="t0" time="162.00" from="merge_0" to="merge_1" dir="1" speed="5.76" reason="strategic|urgent" leaderGap="12.55" leaderSecureGap="3.37" followerGap="62.87" followerSecureGap="55.34"/>
    <change id="onRamp.30" type="t0" time="164.00" from="merge_0" to="merge_1" dir="1" speed="9.28" reason="strategic|urgent" leaderGap="18.65" leaderSecureGap="8.97" followerGap="29.64" followerSecureGap="15.40"/>
    <change id="onRamp.31" type="t0" time="165.00" from="merge_0" to="merge_1" dir="1" speed="10.44" reason="strategic|urgent" leaderGap="15.89" leaderSecureGap="8.61" followerGap="11.77" followerSecureGap="4.77"/>
    <change id="onRamp.32" type="t0" time="169.00" from="merge_0" to="merge_1" dir="1" speed="9.84" reason="strategic|urgent" leaderGap="16.91" leaderSecureGap="3.93" followerGap="12.60" followerSecureGap="6.03"/>
    <change id="main.115" type="t0" time="171.00" from="beg2_0" to="beg2_1" dir="1" speed="25.13" reason="speedGain" leaderGap="2.65" leaderSecureGap="0.00" followerGap="None" followerSecureGap="None"/>
    <change id="main.117" type="t0" time="176.00" from="beg2_0" to="beg2_1" dir="1" speed="28.04" reason="cooperative|urgent" leaderGap="4.37" leaderSecureGap="0.00" followerGap="117.86" followerSecureGap="61.27"/>
    <change id="main.119" type="t0" time="177.00" from="beg2_0" to="beg2_1" dir="1" speed="33.55" reason="cooperative|urgent" leaderGap="68.09" leaderSecureGap="54.24" followerGap="43.32" followerSecureGap="20.26"/>
    <change id="onRamp.33" type="t0" time="178.00" from="merge_0" to="merge_1" dir="1" speed="4.71" reason="strategic|urgent" leaderGap="9.80" leaderSecureGap="0.00" followerGap="170.10" followerSecureGap="128.92"/>
    <change id="onRamp.34" type="t0" time="178.00" from="merge_0" to="merge_1" dir="1" speed="1.73" reason="strategic|urgent" leaderGap="14.96" leaderSecureGap="1.51" followerGap="150.14" followerSecureGap="129.14"/>
    <change id="onRamp.35" type="t0" time="178.00" from="merge_0" to="merge_1" dir="1" speed="9.90" reason="strategic|urgent" leaderGap="19.39" leaderSecureGap="16.19" followerGap="125.75" followerSecureGap="122.84"/>
    <change id="onRamp.36" type="t0" time="184.00" from="merge_0" to="merge_1" dir="1" speed="6.06" reason="strategic|urgent" leaderGap="11.71" leaderSecureGap="0.00" followerGap="31.24" followerSecureGap="20.14"/>
    <change id="onRamp.37" type="t0" time="185.00" from="merge_0" to="merge_1" dir="1" speed="6.33" reason="strategic|urgent" leaderGap="10.57" leaderSecureGap="4.49" followerGap="16.11" followerSecureGap="9.11"/>
    <change id="main.131" type="t0" time="193.00" from="beg2_0" to="beg2_1" dir="1" speed="28.03" reason="speedGain" leaderGap="4.97" leaderSecureGap="0.00" followerGap="114.93" followerSecureGap="57.94"/>
    <change id="main.133" type="t0" time="195.00" from="beg2_0" to="beg2_1" dir="1" speed="31.69" reason="speedGain" leaderGap="47.34" leaderSecureGap="35.61" followerGap="59.87" followerSecureGap="33.88"/>
    <change id="onRamp.38" type="t0" time="196.00" from="merge_0" to="merge_1" dir="1" speed="10.54" reason="strategic|urgent" leaderGap="5.23" leaderSecureGap="0.00" followerGap="28.58" followerSecureGap="21.58"/>
    <change id="onRamp.39" type="t0" time="199.00" from="merge_0" to="merge_1" dir="1" speed="14.18" reason="strategic|urgent" leaderGap="19.58" leaderSecureGap="8.05" followerGap="103.93" followerSecureGap="94.85"/>
    <change id="onRamp.40" type="t0" time="201.00" from="merge_0" to="merge_1" dir="1" speed="17.43" reason="strategic|urgent" leaderGap="35.43" leaderSecureGap="18.88" followerGap="48.44" followerSecureGap="45.26"/>
    <change id="main.141" type="t0" time="207.00" from="beg2_0" to="beg2_1" dir="1" speed="34.50" reason="cooperative|urgent" leaderGap="32.88" leaderSecureGap="17.59" followerGap="43.42" followerSecureGap="22.66"/>
    <change id="onRamp.41" type="t0" time="208.00" from="merge_0" to="merge_1" dir="1" speed="27.07" reason="strategic|urgent" leaderGap="36.76" leaderSecureGap="0.00" followerGap="97.05" followerSecureGap="62.21"/>
    <change id="onRamp.42" type="t0" time="216.00" from="merge_0" to="merge_1" dir="1" speed="26.30" reason="strategic|urgent" leaderGap="12.86" leaderSecureGap="0.00" followerGap="121.01" followerSecureGap="87.08"/>
    <change id="onRamp.43" type="t0" time="227.00" from="merge_0" to="merge_1" dir="1" speed="28.02" reason="strategic|urgent" leaderGap="47.78" leaderSecureGap="9.30" followerGap="68.44" followerSecureGap="44.39"/>
    <change id="main.159" type="t0" time="232.00" from="beg2_0" to="beg2_1" dir="1" speed="35.02" reason="cooperative|urgent" leaderGap="37.05" leaderSecureGap="26.58" followerGap="34.28" followerSecureGap="30.01"/>
    <change id="onRamp.45" type="t0" time="233.00" from="merge_0" to="merge_1" dir="1" speed="17.58" reason="strategic|urgent" leaderGap="16.52" leaderSecureGap="0.00" followerGap="158.71" followerSecureGap="125.09"/>
    <change id="onRamp.46" type="t0" time="234.00" from="merge_0" to="merge_1" dir="1" speed="18.67" reason="strategic|urgent" leaderGap="23.51" leaderSecureGap="14.92" followerGap="116.58" followerSecureGap="110.10"/>
    <change id="onRamp.47" type="t0" time="240.00" from="merge_0" to="merge_1" dir="1" speed="29.12" reason="strategic|urgent" leaderGap="31.37" leaderSecureGap="2.30" followerGap="54.99" followerSecureGap="33.18"/>
    <change id="onRamp.47" type="t0" time="242.00" from="merge_1" to="merge_2" dir="1" speed="31.78" reason="cooperative|urgent" leaderGap="35.24" leaderSecureGap="0.00" followerGap="61.43" followerSecureGap="47.75"/>
    <change id="main.165" type="t0" time="245.00" from="merge_1" to="merge_2" dir="1" speed="29.33" reason="cooperative|urgent" leaderGap="6.06" leaderSecureGap="0.00" followerGap="79.75" followerSecureGap="75.79"/>
    <change id="onRamp.50" type="t0" time="245.00" from="merge_0" to="merge_1" dir="1" speed="24.95" reason="strategic|urgent" leaderGap="18.45" leaderSecureGap="0.00" followerGap="88.14" followerSecureGap="56.19"/>
    <change id="main.171" type="t0" time="249.00" from="beg2_0" to="beg2_1" dir="1" speed="31.00" reason="cooperative|urgent" leaderGap="6.12" leaderSecureGap="0.00" followerGap="76.10" followerSecureGap="68.55"/>
    <change id="main.175" type="t0" time="252.00" from="beg2_0" to="beg2_1" dir="1" speed="40.59" reason="cooperative|urgent" leaderGap="86.74" leaderSecureGap="81.50" followerGap="None" followerSecureGap="None"/>
    <change id="onRamp.53" type="t0" time="253.00" from="merge_0" to="merge_1" dir="1" speed="15.51" reason="strategic|urgent" leaderGap="23.34" leaderSecureGap="0.00" followerGap="200.59" followerSecureGap="108.99"/>
    <change id="onRamp.54" type="t0" time="255.00" from="merge_0" to="merge_1" dir="1" speed="18.89" reason="strategic|urgent" leaderGap="40.97" leaderSecureGap="24.16" followerGap="124.96" followerSecureGap="101.33"/>
    <change id="onRamp.54" type="t0" time="256.00" from="merge_1" to="merge_2" dir="1" speed="20.51" reason="cooperative|urgent" leaderGap="27.50" leaderSecureGap="0.00" followerGap="139.69" followerSecureGap="107.88"/>
    <change id="onRamp.44" type="t0" time="258.00" from="merge_0" to="merge_1" dir="1" speed="0.00" reason="strategic|urgent" leaderGap="None" leaderSecureGap="None" followerGap="108.04" followerSecureGap="96.17"/>
    <change id="onRamp.48" type="t0" time="258.00" from="merge_0" to="merge_1" dir="1" speed="0.00" reason="strategic|urgent" leaderGap="2.50" leaderSecureGap="0.00" followerGap="100.54" followerSecureGap="96.17"/>
    <change id="main.188" type="t0" time="270.00" from="beg2_0" to="beg2_1" dir="1" speed="36.17" reason="speedGain" leaderGap="41.73" leaderSecureGap="7.25" followerGap="74.35" followerSecureGap="27.00"/>
    <change id="onRamp.59" type="t0" time="273.00" from="merge_0" to="merge_1" dir="1" speed="7.03" reason="strategic|urgent" leaderGap="12.08" leaderSecureGap="0.00" followerGap="163.85" followerSecureGap="149.04"/>
    <change id="onRamp.56" type="t0" time="274.00" from="merge_0" to="merge_1" dir="1" speed="0.17" reason="strategic|urgent" leaderGap="3.14" leaderSecureGap="0.00" followerGap="18.37" followerSecureGap="13.63"/>
    <change id="main.190" type="t0" time="274.00" from="beg2_0" to="beg2_1" dir="1" speed="33.19" reason="cooperative|urgent" leaderGap="67.86" leaderSecureGap="18.16" followerGap="71.60" followerSecureGap="0.00"/>
    <change id="onRamp.51" type="t0" time="275.00" from="merge_0" to="merge_1" dir="1" speed="0.00" reason="strategic|urgent" leaderGap="4.07" leaderSecureGap="0.00" followerGap="15.11" followerSecureGap="2.43"/>
    <change id="onRamp.52" type="t0" time="275.00" from="merge_0" to="merge_1" dir="1" speed="0.00" reason="strategic|urgent" leaderGap="2.50" leaderSecureGap="0.00" followerGap="7.61" followerSecureGap="2.43"/>
    <change id="onRamp.60" type="t0" time="276.00" from="merge_0" to="merge_1" dir="1" speed="9.17" reason="strategic|urgent" leaderGap="15.47" leaderSecureGap="11.51" followerGap="None" followerSecureGap="None"/>
    <change id="onRamp.60" type="t0" time="279.00" from="merge_1" to="merge_2" dir="1" speed="0.00" reason="cooperative|urgent" leaderGap="18.72" leaderSecureGap="0.00" followerGap="99.25" followerSecureGap="83.28"/>
    <change id="onRamp.62" type="t0" time="279.00" from="merge_0" to="merge_1" dir="1" speed="17.41" reason="strategic|urgent" leaderGap="56.73" leaderSecureGap="42.63" followerGap="137.09" followerSecureGap="114.34"/>
    <change id="onRamp.49" type="t0" time="280.00" from="merge_0" to="merge_1" dir="1" speed="0.00" reason="strategic|urgent" leaderGap="None" leaderSecureGap="None" followerGap="2.60" followerSecureGap="0.00"/>
    <change id="onRamp.52" type="t0" time="280.00" from="merge_1" to="merge_2" dir="1" speed="0.00" reason="speedGain" leaderGap="None" leaderSecureGap="None" followerGap="31.90" followerSecureGap="1.80"/>
    <change id="onRamp.59" type="t0" time="280.00" from="merge_1" to="merge_2" dir="1" speed="0.00" reason="cooperative|urgent" leaderGap="16.36" leaderSecureGap="0.00" followerGap="10.55" followerSecureGap="1.80"/>
    <change id="onRamp.57" type="t0" time="283.00" from="merge_0" to="merge_1" dir="1" speed="0.65" reason="strategic|urgent" leaderGap="15.01" leaderSecureGap="0.65" followerGap="11.57" followerSecureGap="7.98"/>
    <change id="onRamp.55" type="t0" time="285.00" from="merge_0" to="merge_1" dir="1" speed="3.34" reason="strategic|urgent" leaderGap="None" leaderSecureGap="None" followerGap="7.03" followerSecureGap="0.00"/>
    <change id="onRamp.58" type="t0" time="289.00" from="merge_0" to="merge_1" dir="1" speed="4.82" reason="strategic|urgent" leaderGap="13.48" leaderSecureGap="0.77" followerGap="6.64" followerSecureGap="0.30"/>
    <change id="onRamp.61" type="t0" time="295.00" from="merge_0" to="merge_1" dir="1" speed="5.34" reason="strategic|urgent" leaderGap="14.85" leaderSecureGap="1.35" followerGap="3.70" followerSecureGap="0.00"/>
    <change id="main.202" type="t0" time="297.00" from="beg2_0" to="beg2_1" dir="1" speed="31.25" reason="speedGain" leaderGap="92.88" leaderSecureGap="51.93" followerGap="38.35" followerSecureGap="22.61"/>
    <change id="onRamp.63" type="t0" time="299.00" from="merge_0" to="merge_1" dir="1" speed="3.66" reason="strategic|urgent" leaderGap="10.59" leaderSecureGap="0.00" followerGap="6.02" followerSecureGap="0.00"/>
    <change id="onRamp.64" type="t0" time="303.00" from="merge_0" to="merge_1" dir="1" speed="1.38" reason="strategic|urgent" leaderGap="11.03" leaderSecureGap="0.00" followerGap="6.18" followerSecureGap="1.12"/>
    <change id="main.206" type="t0" time="304.00" from="beg2_0" to="beg2_1" dir="1" speed="27.92" reason="speedGain" leaderGap="3.56" leaderSecureGap="0.00" followerGap="111.94" followerSecureGap="76.33"/>
    <change id="onRamp.65" type="t0" time="307.00" from="merge_0" to="merge_1" dir="1" speed="2.17" reason="strategic|urgent" leaderGap="4.28" leaderSecureGap="0.00" followerGap="8.12" followerSecureGap="1.33"/>
    <change id="onRamp.66" type="t0" time="310.00" from="merge_0" to="merge_1" dir="1" speed="0.57" reason="strategic|urgent" leaderGap="9.12" leaderSecureGap="0.00" followerGap="7.04" followerSecureGap="0.00"/>
    <change id="onRamp.67" type="t0" time="312.00" from="merge_0" to="merge_1" dir="1" speed="2.00" reason="strategic|urgent" leaderGap="4.98" leaderSecureGap="1.95" followerGap="4.13" followerSecureGap="0.00"/>
    <change id="main.212" type="t0" time="312.00" from="beg2_0" to="beg2_1" dir="1" speed="32.79" reason="speedGain" leaderGap="105.71" leaderSecureGap="6.50" followerGap="37.96" followerSecureGap="17.68"/>
    <change id="onRamp.68" type="t0" time="316.00" from="merge_0" to="merge_1" dir="1" speed="7.69" reason="strategic|urgent" leaderGap="21.66" leaderSecureGap="0.00" followerGap="3.69" followerSecureGap="0.17"/>
    <change id="main.216" type="t0" time="318.00" from="beg2_0" to="beg2_1" dir="1" speed="32.86" reason="speedGain" leaderGap="52.00" leaderSecureGap="0.00" followerGap="62.34" followerSecureGap="45.22"/>
    <change id="onRamp.70" type="t0" time="320.00" from="merge_0" to="merge_1" dir="1" speed="4.10" reason="strategic|urgent" leaderGap="13.20" leaderSecureGap="3.28" followerGap="4.39" followerSecureGap="0.00"/>
    <change id="onRamp.71" type="t0" time="323.00" from="merge_0" to="merge_1" dir="1" speed="5.27" reason="strategic|urgent" leaderGap="10.15" leaderSecureGap="4.82" followerGap="3.74" followerSecureGap="0.56"/>
    <change id="onRamp.69" type="t0" time="325.00" from="merge_0" to="merge_1" dir="1" speed="2.81" reason="strategic|urgent" leaderGap="9.37" leaderSecureGap="0.00" followerGap="7.40" followerSecureGap="1.26"/>
    <change id="onRamp.72" type="t0" time="329.00" from="merge_0" to="merge_1" dir="1" speed="7.84" reason="strategic|urgent" leaderGap="21.59" leaderSecureGap="1.35" followerGap="6.67" followerSecureGap="0.00"/>
    <change id="onRamp.73" type="t0" time="332.00" from="merge_0" to="merge_1" dir="1" speed="9.93" reason="strategic|urgent" leaderGap="20.46" leaderSecureGap="1.43" followerGap="4.27" followerSecureGap="0.00"/>
    <change id="onRamp.74" type="t0" time="334.00" from="merge_0" to="merge_1" dir="1" speed="4.90" reason="strategic|urgent" leaderGap="7.72" leaderSecureGap="2.01" followerGap="6.57" followerSecureGap="0.00"/>
    <change id="onRamp.75" type="t0" time="337.00" from="merge_0" to="merge_1" dir="1" speed="6.93" reason="strategic|urgent" leaderGap="10.72" leaderSecureGap="2.58" followerGap="6.45" followerSecureGap="0.00"/>
    <change id="onRamp.76" type="t0" time="339.00" from="merge_0" to="merge_1" dir="1" speed="9.57" reason="strategic|urgent" leaderGap="10.19" leaderSecureGap="5.36" followerGap="6.18" followerSecureGap="0.00"/>
    <change id="onRamp.77" type="t0" time="342.00" from="merge_0" to="merge_1" dir="1" speed="2.92" reason="strategic|urgent" leaderGap="9.71" leaderSecureGap="0.00" followerGap="7.13" followerSecureGap="3.43"/>
    <change id="main.235" type="t0" time="342.00" from="beg2_0" to="beg2_1" dir="1" speed="33.96" reason="speedGain" leaderGap="63.76" leaderSecureGap="37.80" followerGap="None" followerSecureGap="None"/>
    <change id="main.233" type="t0" time="347.00" from="beg2_0" to="beg2_1" dir="1" speed="7.55" reason="speedGain" leaderGap="None" leaderSecureGap="None" followerGap="None" followerSecureGap="None"/>
    <change id="main.227" type="t0" time="348.00" from="merge_1" to="merge_2" dir="1" speed="3.52" reason="speedGain" leaderGap="9.40" leaderSecureGap="0.00" followerGap="29.17" followerSecureGap="13.88"/>
    <change id="main.223" type="t0" time="349.00" from="merge_1" to="merge_2" dir="1" speed="8.18" reason="cooperative|urgent" leaderGap="7.85" leaderSecureGap="0.00" followerGap="24.74" followerSecureGap="3.87"/>
    <change id="onRamp.78" type="t0" time="351.00" from="merge_0" to="merge_1" dir="1" speed="8.85" reason="strategic|urgent" leaderGap="12.76" leaderSecureGap="0.00" followerGap="21.99" followerSecureGap="11.63"/>
    <change id="main.238" type="t0" time="356.00" from="beg2_0" to="beg2_1" dir="1" speed="26.43" reason="speedGain" leaderGap="56.71" leaderSecureGap="46.29" followerGap="135.91" followerSecureGap="89.74"/>
    <change id="onRamp.79" type="t0" time="356.00" from="merge_0" to="merge_1" dir="1" speed="12.53" reason="strategic|urgent" leaderGap="20.50" leaderSecureGap="1.73" followerGap="7.08" followerSecureGap="0.08"/>
    <change id="onRamp.80" type="t0" time="358.00" from="merge_0" to="merge_1" dir="1" speed="10.76" reason="strategic|urgent" leaderGap="12.16" leaderSecureGap="8.96" followerGap="6.54" followerSecureGap="0.00"/>
    <change id="onRamp.81" type="t0" time="360.00" from="merge_0" to="merge_1" dir="1" speed="5.48" reason="strategic|urgent" leaderGap="6.19" leaderSecureGap="2.47" followerGap="134.12" followerSecureGap="127.83"/>
    <change id="onRamp.82" type="t0" time="362.00" from="merge_0" to="merge_1" dir="1" speed="4.65" reason="strategic|urgent" leaderGap="11.56" leaderSecureGap="1.43" followerGap="80.78" followerSecureGap="69.58"/>
    <change id="main.242" type="t0" time="362.00" from="beg2_0" to="beg2_1" dir="1" speed="29.73" reason="speedGain" leaderGap="30.53" leaderSecureGap="3.06" followerGap="63.54" followerSecureGap="45.71"/>
    <change id="onRamp.83" type="t0" time="364.00" from="merge_0" to="merge_1" dir="1" speed="7.03" reason="strategic|urgent" leaderGap="14.22" leaderSecureGap="4.45" followerGap="44.59" followerSecureGap="28.00"/>
    <change id="onRamp.84" type="t0" time="365.00" from="merge_0" to="merge_1" dir="1" speed="9.23" reason="strategic|urgent" leaderGap="14.12" leaderSecureGap="9.48" followerGap="23.06" followerSecureGap="16.06"/>
    <change id="onRamp.87" type="t0" time="380.00" from="merge_0" to="merge_1" dir="1" speed="5.59" reason="strategic|urgent" leaderGap="4.25" leaderSecureGap="0.00" followerGap="105.86" followerSecureGap="102.24"/>
    <change id="main.256" type="t0" time="380.00" from="beg2_0" to="beg2_1" dir="1" speed="28.26" reason="cooperative|urgent" leaderGap="10.06" leaderSecureGap="0.00" followerGap="111.88" followerSecureGap="32.20"/>
    <change id="onRamp.85" type="t0" time="382.00" from="merge_0" to="merge_1" dir="1" speed="7.30" reason="strategic|urgent" leaderGap="22.44" leaderSecureGap="0.00" followerGap="16.11" followerSecureGap="5.69"/>
    <change id="onRamp.88" type="t0" time="382.00" from="merge_0" to="merge_1" dir="1" speed="6.26" reason="strategic|urgent" leaderGap="12.65" leaderSecureGap="6.01" followerGap="97.83" followerSecureGap="86.97"/>
    <change id="main.258" type="t0" time="382.00" from="beg2_0" to="beg2_1" dir="1" speed="26.04" reason="cooperative|urgent" leaderGap="47.51" leaderSecureGap="9.08" followerGap="60.23" followerSecureGap="41.06"/>
    <change id="onRamp.86" type="t0" time="383.00" from="merge_0" to="merge_1" dir="1" speed="5.78" reason="strategic|urgent" leaderGap="14.20" leaderSecureGap="1.26" followerGap="4.56" followerSecureGap="0.71"/>
    <change id="onRamp.89" type="t0" time="383.00" from="merge_0" to="merge_1" dir="1" speed="9.45" reason="strategic|urgent" leaderGap="16.44" leaderSecureGap="11.58" followerGap="142.21" followerSecureGap="98.36"/>
    <change id="onRamp.90" type="t0" time="384.00" from="merge_0" to="merge_1" dir="1" speed="8.88" reason="strategic|urgent" leaderGap="14.20" leaderSecureGap="6.42" followerGap="104.80" followerSecureGap="99.76"/>