<?xml version="1.0" encoding="UTF-8"?>

<!-- generated on 2022-11-29 09:07:50 by Eclipse SUMO polyconvert Version v1_14_1+2893-91a825da05b
This data file and the accompanying materials
are made available under the terms of the Eclipse Public License v2.0
which accompanies this distribution, and is available at
http://www.eclipse.org/legal/epl-v20.html
This file may also be made available under the following Secondary
Licenses when the conditions for such availability set forth in the Eclipse
Public License 2.0 are satisfied: GNU General Public License, version 2
or later which is available at
https://www.gnu.org/licenses/old-licenses/gpl-2.0-standalone.html
SPDX-License-Identifier: EPL-2.0 OR GPL-2.0-or-later
<configuration xmlns:xsi="http://www.w3.org/2001/XMLSchema-instance" xsi:noNamespaceSchemaLocation="http://sumo.dlr.de/xsd/polyconvertConfiguration.xsd">

    <input>
        <dlr-navteq-poly-files value="dlr_navteq_polygons.txt"/>
    </input>

    <output>
        <write-license value="true"/>
        <output-file value="pois.poi.xml"/>
    </output>

    <projection>
        <proj.scale value="0.00001"/>
        <proj.utm value="true"/>
        <proj.plain-geo value="true"/>
    </projection>

    <report>
        <verbose value="true"/>
        <xml-validation value="never"/>
    </report>

</configuration>
-->

<additional xmlns:xsi="http://www.w3.org/2001/XMLSchema-instance" xsi:noNamespaceSchemaLocation="http://sumo.dlr.de/xsd/additional_file.xsd">
    <poly id="noname#0" type="unknown" color="51,128,255" fill="0" layer="-1.000000" geo="1" shape="13.044880,52.208060 13.045230,52.207640 13.046960,52.207310 13.045230,52.207640 13.044880,52.208060 13.045230,52.207640 13.046960,52.207310 13.045230,52.207640 13.044880,52.208060 13.045230,52.207640 13.046960,52.207310 13.045230,52.207640 13.044880,52.208060 13.045230,52.207640 13.046960,52.207310 13.045230,52.207640 13.044880,52.208060 13.045230,52.207640 13.046960,52.207310 13.045230,52.207640 13.044880,52.208060 13.045230,52.207640 13.046960,52.207310 13.045230,52.207640 13.044880,52.208060 13.045230,52.207640 13.046960,52.207310 13.045230,52.207640 13.044880,52.208060 13.045230,52.207640 13.046960,52.207310 13.045230,52.207640 13.044880,52.208060 13.045230,52.207640 13.046960,52.207310 13.045230,52.207640 13.044880,52.208060 13.045230,52.207640 13.046960,52.207310 13.045230,52.207640 13.044880,52.208060 13.045230,52.207640 13.046960,52.207310 13.045230,52.207640 13.044880,52.208060 13.045230,52.207640 13.046960,52.207310 13.045230,52.207640 13.044880,52.208060 13.045230,52.207640 13.046960,52.207310 13.045230,52.207640 13.044880,52.208060 13.045230,52.207640 13.046960,52.207310 13.045230,52.207640 13.044880,52.208060 13.045230,52.207640 13.046960,52.207310 13.045230,52.207640 13.044880,52.208060 13.045230,52.207640 13.046960,52.207310 13.045230,52.207640 13.044880,52.208060 13.045230,52.207640 13.046960,52.207310 13.045230,52.207640 13.044880,52.208060 13.045230,52.207640 13.046960,52.207310 13.045230,52.207640 13.044880,52.208060 13.045230,52.207640 13.046960,52.207310 13.045230,52.207640 13.044880,52.208060 13.045230,52.207640 13.046960,52.207310 13.045230,52.207640 13.044880,52.208060 13.045230,52.207640 13.046960,52.207310 13.045230,52.207640 13.044880,52.208060 13.045230,52.207640 13.046960,52.207310 13.045230,52.207640"/>
</additional>
