<?xml version="1.0" encoding="UTF-8"?>

<!-- generated on Mon Feb 17 15:30:47 2020 by Eclipse SUMO netconvert Version v1_5_0+0130-ceb0a01
This data file and the accompanying materials
are made available under the terms of the Eclipse Public License v2.0
which accompanies this distribution, and is available at
http://www.eclipse.org/legal/epl-v20.html
SPDX-License-Identifier: EPL-2.0
<configuration xmlns:xsi="http://www.w3.org/2001/XMLSchema-instance" xsi:noNamespaceSchemaLocation="http://sumo.dlr.de/xsd/netconvertConfiguration.xsd">

    <input>
        <node-files value="input_plain.nod.xml"/>
        <edge-files value="input_plain.edg.xml"/>
    </input>

    <output>
        <write-license value="true"/>
        <output-file value="net.net.xml"/>
        <plain-output-prefix value="plain"/>
    </output>

    <processing>
        <offset.disable-normalization value="true"/>
    </processing>

    <report>
        <xml-validation value="never"/>
        <aggregate-warnings value="5"/>
    </report>

</configuration>
-->

<edges version="1.6" xmlns:xsi="http://www.w3.org/2001/XMLSchema-instance" xsi:noNamespaceSchemaLocation="http://sumo.dlr.de/xsd/edges_file.xsd">
    <edge id="CE" from="C" to="E" priority="2" numLanes="3" speed="13.89"/>
    <edge id="CN" from="C" to="N" priority="2" numLanes="3" speed="13.89"/>
    <edge id="CW" from="C" to="W" priority="2" numLanes="3" speed="13.89"/>
    <edge id="EC" from="E" to="C" priority="2" numLanes="3" speed="13.89"/>
    <edge id="NC" from="N" to="C" priority="2" numLanes="3" speed="13.89"/>
    <edge id="WC" from="W" to="C" priority="2" numLanes="3" speed="13.89"/>
</edges>
