<?xml version="1.0" encoding="UTF-8"?>

<!-- generated on 2022-10-12 14:53:15 by Eclipse SUMO netconvert Version v1_14_1+1648-5ffae7ec9dd
<configuration xmlns:xsi="http://www.w3.org/2001/XMLSchema-instance" xsi:noNamespaceSchemaLocation="http://sumo.dlr.de/xsd/netconvertConfiguration.xsd">

    <input>
        <sumo-net-file value="D:/SUMO/tests/netedit\netelements\trafficlights\joined\phases\NEMA/input_net.net.xml"/>
    </input>

    <output>
        <plain-output-prefix value="D:/SUMO/tests/netedit\netelements\trafficlights\joined\phases\NEMA/input_net"/>
    </output>

    <processing>
        <geometry.min-radius.fix.railways value="false"/>
        <geometry.max-grade.fix value="false"/>
        <offset.disable-normalization value="true"/>
        <lefthand value="0"/>
    </processing>

    <junctions>
        <no-turnarounds value="true"/>
        <junctions.corner-detail value="5"/>
        <junctions.limit-turn-speed value="5.50"/>
        <rectangular-lane-cut value="0"/>
    </junctions>

    <pedestrian>
        <walkingareas value="0"/>
    </pedestrian>

</configuration>
-->

<nodes version="1.9" xmlns:xsi="http://www.w3.org/2001/XMLSchema-instance" xsi:noNamespaceSchemaLocation="http://sumo.dlr.de/xsd/nodes_file.xsd">
    <location netOffset="0.00,0.00" convBoundary="-40.00,10.00,40.00,90.00" origBoundary="-10000000000.00,-10000000000.00,10000000000.00,10000000000.00" projParameter="!"/>

    <node id="J0" x="0.00" y="50.00" type="priority"/>
    <node id="J1" x="-30.00" y="50.00" type="priority"/>
    <node id="J10" x="20.00" y="90.00" type="dead_end"/>
    <node id="J11" x="40.00" y="30.00" type="dead_end"/>
    <node id="J13" x="20.00" y="10.00" type="dead_end"/>
    <node id="J2" x="30.00" y="50.00" type="priority"/>
    <node id="J3" x="0.00" y="80.00" type="priority"/>
    <node id="J4" x="0.00" y="20.00" type="priority"/>
    <node id="J5" x="-40.00" y="30.00" type="dead_end"/>
    <node id="J6" x="-20.00" y="10.00" type="dead_end"/>
    <node id="J7" x="40.00" y="70.00" type="dead_end"/>
    <node id="J8" x="-20.00" y="90.00" type="dead_end"/>
    <node id="J9" x="-40.00" y="70.00" type="dead_end"/>
</nodes>
