<?xml version="1.0" encoding="UTF-8"?>

<!-- generated on Tue Nov 12 16:54:50 2013 by SUMO netconvert Version dev-SVN-r15089
<?xml version="1.0" encoding="UTF-8"?>

<configuration xmlns:xsi="http://www.w3.org/2001/XMLSchema-instance" xsi:noNamespaceSchemaLocation="http://sumo-sim.org/xsd/netconvertConfiguration.xsd">

    <input>
        <node-files value="input_nodes.nod.xml"/>
        <edge-files value="input_edges.edg.xml"/>
    </input>

    <output>
        <output-file value="net.net.xml"/>
    </output>

    <tls_building>
        <tls.set value="15031669"/>
    </tls_building>

    <report>
        <verbose value="true"/>
    </report>

</configuration>
-->

<net version="0.13" xmlns:xsi="http://www.w3.org/2001/XMLSchema-instance" xsi:noNamespaceSchemaLocation="http://sumo-sim.org/xsd/net_file.xsd">

    <location netOffset="-19284.00,-26734.00" convBoundary="0.00,0.00,380.00,153.00" origBoundary="19284.00,26734.00,19664.00,26887.00" projParameter="!"/>

    <edge id=":15031669_0" function="internal">
        <lane id=":15031669_0_0" index="0" speed="12.50" length="7.30" shape="140.78,64.62 138.25,64.25 136.38,64.46 135.19,65.23 134.67,66.58"/>
    </edge>
    <edge id=":15031669_1" function="internal">
        <lane id=":15031669_1_0" index="0" speed="16.67" length="16.94" shape="140.78,64.62 135.80,63.46 132.42,62.50 129.14,61.27 124.44,59.26"/>
        <lane id=":15031669_1_1" index="1" speed="16.67" length="16.94" shape="141.51,61.40 136.70,60.28 133.45,59.36 130.29,58.17 125.75,56.23"/>
    </edge>
    <edge id=":15031669_3" function="internal">
        <lane id=":15031669_3_0" index="0" speed="12.50" length="4.06" shape="141.51,61.40 137.63,60.23"/>
    </edge>
    <edge id=":15031669_10" function="internal">
        <lane id=":15031669_10_0" index="0" speed="12.50" length="8.01" shape="137.63,60.23 137.46,60.18 134.66,58.63 133.11,56.76 132.82,54.56"/>
    </edge>
    <edge id=":15031669_4" function="internal">
        <lane id=":15031669_4_0" index="0" speed="8.33" length="12.15" shape="139.36,55.50 138.35,59.04 136.91,61.41 135.52,63.59 134.67,66.58"/>
    </edge>
    <edge id=":15031669_5" function="internal">
        <lane id=":15031669_5_0" index="0" speed="12.50" length="8.10" shape="136.09,55.03 135.16,57.11 133.12,58.00 129.99,57.71 129.56,57.56"/>
    </edge>
    <edge id=":15031669_6" function="internal">
        <lane id=":15031669_6_0" index="0" speed="8.33" length="2.41" shape="136.09,55.03 135.10,56.14 134.22,56.43"/>
    </edge>
    <edge id=":15031669_11" function="internal">
        <lane id=":15031669_11_0" index="0" speed="12.50" length="4.04" shape="129.56,57.56 125.75,56.23"/>
    </edge>
    <edge id=":15031669_12" function="internal">
        <lane id=":15031669_12_0" index="0" speed="8.33" length="2.41" shape="134.22,56.43 133.47,55.90 132.82,54.56"/>
    </edge>
    <edge id=":15031669_7" function="internal">
        <lane id=":15031669_7_0" index="0" speed="12.50" length="10.42" shape="131.39,66.20 131.12,64.36 129.87,62.59 127.64,60.89 124.44,59.26"/>
    </edge>
    <edge id=":15031669_8" function="internal">
        <lane id=":15031669_8_0" index="0" speed="8.33" length="12.37" shape="131.39,66.20 131.22,63.06 130.36,60.56 129.56,57.84 129.56,54.10"/>
    </edge>
    <edge id=":15031669_9" function="internal">
        <lane id=":15031669_9_0" index="0" speed="8.33" length="2.41" shape="131.39,66.20 132.35,65.06 133.22,64.75"/>
    </edge>
    <edge id=":15031669_13" function="internal">
        <lane id=":15031669_13_0" index="0" speed="8.33" length="2.41" shape="133.22,64.75 133.99,65.25 134.67,66.58"/>
    </edge>
    <edge id=":15031670_0" function="internal">
        <lane id=":15031670_0_0" index="0" speed="8.33" length="4.82" shape="133.37,50.77 134.36,49.66 135.23,49.37 135.99,49.89 136.63,51.23"/>
    </edge>
    <edge id=":915660425_0" function="internal">
        <lane id=":915660425_0_0" index="0" speed="8.33" length="4.82" shape="124.64,153.19 123.68,154.32 122.81,154.64 122.04,154.13 121.36,152.81"/>
    </edge>

    <edge id="-15035564" from="15031670" to="15031669" priority="-1">
        <lane id="-15035564_0" index="0" speed="8.33" length="3.83" shape="139.90,51.70 139.36,55.50"/>
        <lane id="-15035564_1" index="1" speed="8.33" length="3.83" shape="136.63,51.23 136.09,55.03"/>
    </edge>
    <edge id="-900000001" from="915660425" to="15031669" priority="-1">
        <lane id="-900000001_0" index="0" speed="8.33" length="87.19" shape="121.36,152.81 131.39,66.20"/>
    </edge>
    <edge id="15031630" from="15034028" to="15031669" priority="-1">
        <lane id="15031630_0" index="0" speed="16.67" length="244.22" shape="378.90,118.83 140.78,64.62"/>
        <lane id="15031630_1" index="1" speed="16.67" length="244.22" shape="379.63,115.61 141.51,61.40"/>
    </edge>
    <edge id="15032917" from="15031669" to="15031635" priority="-1">
        <lane id="15032917_0" index="0" speed="16.67" length="137.74" shape="124.44,59.26 -1.97,4.54"/>
        <lane id="15032917_1" index="1" speed="16.67" length="137.74" shape="125.75,56.23 -0.66,1.51"/>
    </edge>
    <edge id="15035564" from="15031669" to="15031670" priority="-1">
        <lane id="15035564_0" index="0" speed="8.33" length="3.83" shape="129.56,54.10 130.10,50.30"/>
        <lane id="15035564_1" index="1" speed="8.33" length="3.83" shape="132.82,54.56 133.37,50.77"/>
    </edge>
    <edge id="900000001" from="15031669" to="915660425" priority="-1">
        <lane id="900000001_0" index="0" speed="8.33" length="87.19" shape="134.67,66.58 124.64,153.19"/>
    </edge>

    <tlLogic id="15031669" type="static" programID="0" offset="0">
        <phase duration="31" state="rrrrGggGGg"/>
        <phase duration="5" state="rrrryggyyg"/>
        <phase duration="6" state="rrrrrGGrrG"/>
        <phase duration="5" state="rrrrryyrry"/>
        <phase duration="31" state="GGGGrrrrrr"/>
        <phase duration="5" state="yyyyrrrrrr"/>
    </tlLogic>

    <junction id="15031635" type="unregulated" x="0.00" y="0.00" incLanes="15032917_0 15032917_1" intLanes="" shape="-2.60,6.01 -0.02,0.05"/>
    <junction id="15031669" type="traffic_light" x="134.00" y="58.00" incLanes="15031630_0 15031630_1 -15035564_0 -15035564_1 -900000001_0" intLanes=":15031669_0_0 :15031669_1_0 :15031669_1_1 :15031669_10_0 :15031669_4_0 :15031669_11_0 :15031669_12_0 :15031669_7_0 :15031669_8_0 :15031669_13_0" shape="140.42,66.18 141.86,59.84 140.94,55.72 127.97,53.87 126.38,54.76 123.80,60.72 129.80,66.01 136.26,66.76">
        <request index="0" response="0000000000" foes="1000010000" cont="0"/>
        <request index="1" response="0000000000" foes="0110110000" cont="0"/>
        <request index="2" response="0000000000" foes="0110110000" cont="0"/>
        <request index="3" response="0000000000" foes="0101110000" cont="1"/>
        <request index="4" response="0000001111" foes="1000001111" cont="0"/>
        <request index="5" response="0110001110" foes="0110001110" cont="1"/>
        <request index="6" response="0100001000" foes="0100001000" cont="1"/>
        <request index="7" response="0000000110" foes="0000100110" cont="0"/>
        <request index="8" response="0000001110" foes="0001101110" cont="0"/>
        <request index="9" response="0000010001" foes="0000010001" cont="1"/>
    </junction>
    <junction id="15031670" type="priority" x="135.00" y="51.00" incLanes="15035564_0 15035564_1" intLanes=":15031670_0_0" shape="135.05,51.01 141.48,51.93 128.52,50.07 134.95,50.99">
        <request index="0" response="0" foes="0" cont="0"/>
    </junction>
    <junction id="15034028" type="unregulated" x="380.00" y="114.00" incLanes="" intLanes="" shape="379.99,114.05 378.55,120.39"/>
    <junction id="915660425" type="priority" x="123.00" y="153.00" incLanes="900000001_0" intLanes=":915660425_0_0" shape="122.95,152.99 119.77,152.63 126.23,153.37 123.05,153.01">
        <request index="0" response="0" foes="0" cont="0"/>
    </junction>

    <junction id=":15031669_10_0" type="internal" x="137.63" y="60.23" incLanes=":15031669_3_0" intLanes=":15031669_4_0 :15031669_5_0 :15031669_6_0 :15031669_8_0"/>
    <junction id=":15031669_11_0" type="internal" x="129.56" y="57.56" incLanes=":15031669_5_0 -900000001_0 15031630_0 15031630_1" intLanes=":15031669_1_0 :15031669_1_1 :15031669_3_0 :15031669_7_0 :15031669_8_0"/>
    <junction id=":15031669_12_0" type="internal" x="134.22" y="56.43" incLanes=":15031669_6_0 -900000001_0 15031630_1" intLanes=":15031669_3_0 :15031669_8_0"/>
    <junction id=":15031669_13_0" type="internal" x="133.22" y="64.75" incLanes=":15031669_9_0 -15035564_0 15031630_0" intLanes=":15031669_0_0 :15031669_4_0"/>

    <connection from="-15035564" to="900000001" fromLane="0" toLane="0" via=":15031669_4_0" tl="15031669" linkIndex="4" dir="s" state="o"/>
    <connection from="-15035564" to="15032917" fromLane="1" toLane="1" via=":15031669_5_0" tl="15031669" linkIndex="5" dir="l" state="o"/>
    <connection from="-15035564" to="15035564" fromLane="1" toLane="1" via=":15031669_6_0" tl="15031669" linkIndex="6" dir="t" state="o"/>
    <connection from="-900000001" to="15032917" fromLane="0" toLane="0" via=":15031669_7_0" tl="15031669" linkIndex="7" dir="r" state="o"/>
    <connection from="-900000001" to="15035564" fromLane="0" toLane="0" via=":15031669_8_0" tl="15031669" linkIndex="8" dir="s" state="o"/>
    <connection from="-900000001" to="900000001" fromLane="0" toLane="0" via=":15031669_9_0" tl="15031669" linkIndex="9" dir="t" state="o"/>
    <connection from="15031630" to="900000001" fromLane="0" toLane="0" via=":15031669_0_0" tl="15031669" linkIndex="0" dir="r" state="o"/>
    <connection from="15031630" to="15032917" fromLane="0" toLane="0" via=":15031669_1_0" tl="15031669" linkIndex="1" dir="s" state="o"/>
    <connection from="15031630" to="15032917" fromLane="1" toLane="1" via=":15031669_1_1" tl="15031669" linkIndex="2" dir="s" state="o"/>
    <connection from="15031630" to="15035564" fromLane="1" toLane="1" via=":15031669_3_0" tl="15031669" linkIndex="3" dir="l" state="o"/>
    <connection from="15035564" to="-15035564" fromLane="1" toLane="1" via=":15031670_0_0" dir="t" state="M"/>
    <connection from="900000001" to="-900000001" fromLane="0" toLane="0" via=":915660425_0_0" dir="t" state="M"/>

    <connection from=":15031669_0" to="900000001" fromLane="0" toLane="0" dir="s" state="M"/>
    <connection from=":15031669_1" to="15032917" fromLane="0" toLane="0" dir="s" state="M"/>
    <connection from=":15031669_1" to="15032917" fromLane="1" toLane="1" dir="s" state="M"/>
    <connection from=":15031669_3" to="15035564" fromLane="0" toLane="1" via=":15031669_10_0" dir="s" state="M"/>
    <connection from=":15031669_10" to="15035564" fromLane="0" toLane="1" dir="s" state="M"/>
    <connection from=":15031669_4" to="900000001" fromLane="0" toLane="0" dir="s" state="M"/>
    <connection from=":15031669_5" to="15032917" fromLane="0" toLane="1" via=":15031669_11_0" dir="s" state="M"/>
    <connection from=":15031669_11" to="15032917" fromLane="0" toLane="1" dir="s" state="M"/>
    <connection from=":15031669_6" to="15035564" fromLane="0" toLane="1" via=":15031669_12_0" dir="s" state="M"/>
    <connection from=":15031669_12" to="15035564" fromLane="0" toLane="1" dir="s" state="M"/>
    <connection from=":15031669_7" to="15032917" fromLane="0" toLane="0" dir="s" state="M"/>
    <connection from=":15031669_8" to="15035564" fromLane="0" toLane="0" dir="s" state="M"/>
    <connection from=":15031669_9" to="900000001" fromLane="0" toLane="0" via=":15031669_13_0" dir="s" state="M"/>
    <connection from=":15031669_13" to="900000001" fromLane="0" toLane="0" dir="s" state="M"/>
    <connection from=":15031670_0" to="-15035564" fromLane="0" toLane="1" dir="s" state="M"/>
    <connection from=":915660425_0" to="-900000001" fromLane="0" toLane="0" dir="s" state="M"/>

</net>
