<?xml version="1.0" encoding="UTF-8"?>

<!-- generated on 2022-03-16 21:41:45 by Eclipse SUMO duarouter Version v1_12_0+1430-332a022
This data file and the accompanying materials
are made available under the terms of the Eclipse Public License v2.0
which accompanies this distribution, and is available at
http://www.eclipse.org/legal/epl-v20.html
This file may also be made available under the following Secondary
Licenses when the conditions for such availability set forth in the Eclipse
Public License 2.0 are satisfied: GNU General Public License, version 2
or later which is available at
https://www.gnu.org/licenses/old-licenses/gpl-2.0-standalone.html
SPDX-License-Identifier: EPL-2.0 OR GPL-2.0-or-later
<configuration xmlns:xsi="http://www.w3.org/2001/XMLSchema-instance" xsi:noNamespaceSchemaLocation="http://sumo.dlr.de/xsd/duarouterConfiguration.xsd">

    <input>
        <net-file value="input_net.net.xml"/>
        <route-files value="input_flows.flows.xml"/>
    </input>

    <output>
        <output-file value="routes.rou.xml"/>
        <write-license value="true"/>
        <alternatives-output value="routes.rou.alt.xml"/>
    </output>

    <report>
        <xml-validation value="never"/>
        <xml-validation.routes value="never"/>
        <no-step-log value="true"/>
    </report>

</configuration>
-->

<routes xmlns:xsi="http://www.w3.org/2001/XMLSchema-instance" xsi:noNamespaceSchemaLocation="http://sumo.dlr.de/xsd/routes_file.xsd">
    <vehicle id="0.0" depart="10.00">
        <route edges="beg middle end rend"/>
    </vehicle>
    <vehicle id="0.1" depart="11.15">
        <route edges="beg middle end rend"/>
    </vehicle>
    <vehicle id="0.2" depart="14.54">
        <route edges="beg middle end rend"/>
    </vehicle>
    <vehicle id="0.3" depart="45.45">
        <route edges="beg middle end rend"/>
    </vehicle>
    <vehicle id="0.4" depart="52.55">
        <route edges="beg middle end rend"/>
    </vehicle>
    <vehicle id="0.5" depart="57.83">
        <route edges="beg middle end rend"/>
    </vehicle>
    <vehicle id="0.6" depart="89.15">
        <route edges="beg middle end rend"/>
    </vehicle>
    <vehicle id="0.7" depart="92.12">
        <route edges="beg middle end rend"/>
    </vehicle>
    <vehicle id="0.8" depart="106.08">
        <route edges="beg middle end rend"/>
    </vehicle>
    <vehicle id="0.9" depart="112.15">
        <route edges="beg middle end rend"/>
    </vehicle>
</routes>
