<?xml version="1.0" encoding="UTF-8"?>

<!-- generated on Wed Nov 25 13:56:26 2020 by Eclipse SUMO sumo Version v1_7_0+1281-ac36950658
<configuration xmlns:xsi="http://www.w3.org/2001/XMLSchema-instance" xsi:noNamespaceSchemaLocation="http://sumo.dlr.de/xsd/sumoConfiguration.xsd">

    <input>
        <net-file value="input_net2.net.xml"/>
        <route-files value="input_routes.rou.xml"/>
        <additional-files value="input_additional2.add.xml"/>
    </input>

    <processing>
        <time-to-teleport value="-1"/>
        <default.speeddev value="0"/>
        <pedestrian.model value="nonInteracting"/>
    </processing>

    <report>
        <duration-log.disable value="true"/>
        <no-step-log value="true"/>
    </report>

    <traci_server>
        <remote-port value="43275"/>
    </traci_server>

    <mesoscopic>
        <mesosim value="true"/>
        <meso-junction-control value="true"/>
    </mesoscopic>

    <gui_only>
        <window-size value="500,500"/>
        <window-pos value="50,50"/>
    </gui_only>

</configuration>
-->

<calibratorstats xmlns:xsi="http://www.w3.org/2001/XMLSchema-instance" xsi:noNamespaceSchemaLocation="http://sumo.dlr.de/xsd/calibratorstats_file.xsd">
    <interval begin="0.00" end="100.00" id="cali_WE" nVehContrib="13" removed="12" inserted="0" cleared="0" flow="468.00" aspiredFlow="450.00" speed="3.60" aspiredSpeed="10.00"/>
    <interval begin="100.00" end="200.00" id="cali_WE" nVehContrib="28" removed="0" inserted="28" cleared="0" flow="1008.00" aspiredFlow="1800.00" speed="2.41" aspiredSpeed="15.00"/>
    <interval begin="0.00" end="200.00" id="cali_SN" nVehContrib="0" removed="0" inserted="94" cleared="0" flow="0.00" aspiredFlow="300.00" speed="-1.00" aspiredSpeed="-1.00"/>
</calibratorstats>
