<?xml version="1.0" encoding="UTF-8"?>

<!-- generated on Thu 07 Mar 2019 10:35:14 PM CET by Eclipse SUMO netedit Version v1_1_0+0435-678c69824b
<configuration xmlns:xsi="http://www.w3.org/2001/XMLSchema-instance" xsi:noNamespaceSchemaLocation="http://sumo.dlr.de/xsd/netconvertConfiguration.xsd">

    <input>
        <sumo-net-file value="net.net.xml"/>
    </input>

    <output>
        <output-file value="net.net.xml"/>
    </output>

    <processing>
        <geometry.max-grade.fix value="false"/>
        <offset.disable-normalization value="true"/>
        <lefthand value="false"/>
    </processing>

    <junctions>
        <no-internal-links value="true"/>
        <no-turnarounds value="true"/>
        <junctions.corner-detail value="5"/>
        <junctions.limit-turn-speed value="5.5"/>
        <rectangular-lane-cut value="false"/>
    </junctions>

    <pedestrian>
        <walkingareas value="false"/>
    </pedestrian>

    <visualisation>
        <registry-viewport value="true"/>
    </visualisation>

</configuration>
-->

<net version="1.1" junctionCornerDetail="5" limitTurnSpeed="5.50" xmlns:xsi="http://www.w3.org/2001/XMLSchema-instance" xsi:noNamespaceSchemaLocation="http://sumo.dlr.de/xsd/net_file.xsd">

    <location netOffset="100.00,0.00" convBoundary="0.00,0.00,1000.00,0.00" origBoundary="-10000000000.00,-10000000000.00,10000000000.00,10000000000.00" projParameter="!"/>

    <edge id="1" from="gneJ0" to="gneJ1" priority="-1" spreadType="center">
        <lane id="1_0" index="0" speed="13.89" length="1414.21" shape="0.00,0.00,1000.00 1000.00,0.00"/>
    </edge>

    <junction id="gneJ0" type="dead_end" x="0.00" y="0.00" z="1000.00" incLanes="" intLanes="" shape="0.00,1.60,1000.00 0.00,-1.60,1000.00"/>
    <junction id="gneJ1" type="dead_end" x="1000.00" y="0.00" incLanes="1_0" intLanes="" shape="1000.00,-1.60 1000.00,1.60"/>

</net>
