<?xml version="1.0" encoding="UTF-8"?>

<!-- generated on 05/02/13 14:03:41 by SUMO duarouter Version 0.17.0
<?xml version="1.0" encoding="UTF-8"?>

<configuration xmlns:xsi="http://www.w3.org/2001/XMLSchema-instance" xsi:noNamespaceSchemaLocation="http://sumo-sim.org/xsd/duarouterConfiguration.xsd">

    <input>
        <net-file value="input_net.net.xml"/>
        <weight-files value="input_weights.dump.xml"/>
        <trip-files value="input_trips.trips.xml"/>
    </input>

    <output>
        <output-file value="routes.rou.xml"/>
    </output>

    <report>
        <no-step-log value="true"/>
    </report>

</configuration>
-->

<routes xmlns:xsi="http://www.w3.org/2001/XMLSchema-instance" xsi:noNamespaceSchemaLocation="http://sumo-sim.org/xsd/routes_file.xsd">
    <vType id="fast" maxSpeed="50.00"/>
    <vehicle id="fast0" type="fast" depart="0.00">
        <routeDistribution last="0">
            <route cost="109.47" probability="1.00000000" edges="beg beg2left left left2end end"/>
        </routeDistribution>
    </vehicle>
    <vType id="slow" maxSpeed="2.00"/>
    <vehicle id="slow0" type="slow" depart="0.00">
        <routeDistribution last="0">
            <route cost="993.80" probability="1.00000000" edges="beg middle end"/>
        </routeDistribution>
    </vehicle>
</routes>
