<?xml version="1.0" encoding="UTF-8"?>

<!-- generated on Wed Sep 28 13:48:07 2016 by SUMO netconvert Version dev-SVN-r21560
<?xml version="1.0" encoding="UTF-8"?>

<configuration xmlns:xsi="http://www.w3.org/2001/XMLSchema-instance" xsi:noNamespaceSchemaLocation="http://sumo.dlr.de/xsd/netconvertConfiguration.xsd">

    <input>
        <node-files value="input_plain.nod.xml"/>
        <edge-files value="input_plain.edg.xml"/>
    </input>

    <processing>
        <ignore-errors.edge-type value="true"/>
        <no-internal-links value="true"/>
        <no-turnarounds value="true"/>
        <geometry.min-radius.fix value="true"/>
    </processing>

    <report>
        <xml-validation value="never"/>
    </report>

</configuration>
-->

<net version="0.27" xmlns:xsi="http://www.w3.org/2001/XMLSchema-instance" xsi:noNamespaceSchemaLocation="http://sumo.dlr.de/xsd/net_file.xsd">

    <location netOffset="-684148.78,-5706279.49" convBoundary="0.00,0.00,205.87,92.40" origBoundary="5.538970,51.449400,5.678834,51.487414" projParameter="+proj=utm +zone=31 +ellps=WGS84 +datum=WGS84 +units=m +no_defs"/>

    <edge id="-1" from="C" to="42736497" priority="1" type="highway.unclassified" shape="182.48,88.37 184.59,88.29 192.39,84.12 194.14,78.05 198.75,62.09">
        <lane id="-1_0" index="0" speed="13.89" length="33.77" shape="186.54,85.37 191.00,82.99 192.55,77.59 197.16,61.63"/>
    </edge>
    <edge id="-2" from="C" to="B" priority="2" type="highway.service" shape="182.48,88.37 178.63,64.59 138.57,74.29 134.78,80.84 133.94,90.32">
        <lane id="-2_0" index="0" allow="delivery" speed="5.56" length="82.39" shape="180.03,83.53 177.29,66.61 139.64,75.73 136.39,81.35 136.04,85.29"/>
    </edge>
    <edge id="-3" from="B" to="C" priority="1" type="highway.unclassified">
        <lane id="-3_0" index="0" speed="13.89" length="48.58" shape="139.07,88.46 177.25,86.93"/>
    </edge>
    <edge id="-4" from="A" to="B" priority="1" type="highway.unclassified" shape="119.72,91.01 123.05,90.76 133.94,90.32">
        <lane id="-4_0" index="0" speed="13.89" length="14.24" shape="124.42,89.05 129.52,88.85"/>
    </edge>
    <edge id="-5" from="A" to="42734846" priority="1" type="highway.unclassified" shape="119.72,91.01 118.37,63.81 112.31,11.08 120.68,10.27 200.19,3.13 205.87,0.00">
        <lane id="-5_0" index="0" speed="13.89" length="175.03" shape="117.83,86.26 116.72,63.95 110.48,9.60 120.53,8.63 199.70,1.52 205.07,-1.45"/>
    </edge>
    <edge id="-6" from="287360464" to="A" priority="1" type="highway.unclassified" shape="0.00,90.97 43.04,89.52 80.80,88.25 84.26,88.13 110.25,92.40 119.72,91.01">
        <lane id="-6_0" index="0" speed="13.89" length="120.22" shape="-0.06,89.32 42.98,87.87 80.74,86.60 84.37,86.48 110.26,90.73 115.08,90.02"/>
    </edge>
    <edge id="1" from="42736497" to="C" priority="1" type="highway.unclassified" shape="198.75,62.09 194.14,78.05 192.39,84.12 184.59,88.29 182.48,88.37">
        <lane id="1_0" index="0" speed="13.89" length="33.77" shape="200.34,62.55 195.73,78.51 193.78,85.25 186.76,89.00"/>
    </edge>
    <edge id="2" from="B" to="C" priority="2" type="highway.service" shape="133.94,90.32 134.78,80.84 138.57,74.29 178.63,64.59 182.48,88.37">
        <lane id="2_0" index="0" allow="delivery" speed="5.56" length="82.39" shape="132.76,85.00 133.17,80.33 137.50,72.85 179.97,62.57 183.28,83.01"/>
    </edge>
    <edge id="3" from="C" to="B" priority="1" type="highway.unclassified">
        <lane id="3_0" index="0" speed="13.89" length="48.58" shape="177.38,90.23 139.20,91.76"/>
    </edge>
    <edge id="4" from="B" to="A" priority="1" type="highway.unclassified" shape="133.94,90.32 123.05,90.76 119.72,91.01">
        <lane id="4_0" index="0" speed="13.89" length="14.24" shape="129.65,92.14 124.67,92.35"/>
    </edge>
    <edge id="5" from="42734846" to="A" priority="1" type="highway.unclassified" shape="205.87,0.00 200.19,3.13 120.68,10.27 112.31,11.08 118.37,63.81 119.72,91.01">
        <lane id="5_0" index="0" speed="13.89" length="175.03" shape="206.67,1.45 200.68,4.74 120.83,11.91 114.14,12.56 120.02,63.67 121.13,86.10"/>
    </edge>
    <edge id="6" from="A" to="287360464" priority="1" type="highway.unclassified" shape="119.72,91.01 110.25,92.40 84.26,88.13 80.80,88.25 43.04,89.52 0.00,90.97">
        <lane id="6_0" index="0" speed="13.89" length="120.22" shape="115.56,93.29 110.24,94.07 84.15,89.78 80.86,89.90 43.10,91.17 0.06,92.62"/>
    </edge>

    <tlLogic id="joinedS_4" type="static" programID="0" offset="0">
        <phase duration="31" state="GgrrGGrrGGGg"/>
        <phase duration="4" state="ygrryyrryyyg"/>
        <phase duration="6" state="rGrrrrrrrrrG"/>
        <phase duration="4" state="ryrrrrrrrrry"/>
        <phase duration="31" state="GGGgrrGgrrGG"/>
        <phase duration="4" state="yyygrrygrryy"/>
        <phase duration="6" state="rrrGrrrGrrrr"/>
        <phase duration="4" state="rrryrrryrrrr"/>
    </tlLogic>

    <junction id="287360464" type="dead_end" x="0.00" y="90.97" incLanes="6_0" intLanes="" shape="-0.00,90.92 0.11,94.22 0.00,91.02"/>
    <junction id="42734846" type="dead_end" x="205.87" y="0.00" incLanes="-5_0" intLanes="" shape="205.89,0.04 204.30,-2.85 205.85,-0.04"/>
    <junction id="42736497" type="dead_end" x="198.75" y="62.09" incLanes="-1_0" intLanes="" shape="198.80,62.10 195.63,61.19 198.70,62.08"/>
    <junction id="A" type="traffic_light" x="119.72" y="91.01" incLanes="4_0 5_0 -6_0" intLanes="" shape="124.79,93.94 124.30,87.46 122.73,86.02 116.23,86.34 114.84,88.44 115.79,94.87">
        <request index="0" response="000000" foes="001000"/>
        <request index="1" response="110000" foes="111000"/>
        <request index="2" response="100000" foes="100000"/>
        <request index="3" response="100011" foes="100011"/>
        <request index="4" response="000000" foes="000010"/>
        <request index="5" response="000000" foes="001110"/>
    </junction>
    <junction id="B" type="traffic_light" x="133.94" y="90.32" incLanes="3_0 -2_0 -4_0" intLanes="" shape="139.26,93.36 139.00,86.86 137.64,85.43 131.16,84.86 129.46,87.25 129.72,93.74">
        <request index="0" response="001000" foes="001000"/>
        <request index="1" response="111000" foes="111000"/>
        <request index="2" response="000000" foes="100000"/>
        <request index="3" response="000000" foes="100011"/>
        <request index="4" response="000000" foes="000010"/>
        <request index="5" response="001100" foes="001110"/>
    </junction>
    <junction id="C" type="priority" x="182.48" y="88.37" incLanes="1_0 2_0 -3_0" intLanes="" shape="186.86,90.76 186.44,83.62 184.86,82.75 178.45,83.79 177.19,85.33 177.45,91.82">
        <request index="0" response="001000" foes="001000"/>
        <request index="1" response="111000" foes="111000"/>
        <request index="2" response="000000" foes="100000"/>
        <request index="3" response="000000" foes="100011"/>
        <request index="4" response="000000" foes="000010"/>
        <request index="5" response="001100" foes="001110"/>
    </junction>

    <connection from="-2" to="-3" fromLane="0" toLane="0" tl="joinedS_4" linkIndex="8" dir="r" state="o"/>
    <connection from="-2" to="4" fromLane="0" toLane="0" tl="joinedS_4" linkIndex="9" dir="l" state="o"/>
    <connection from="-3" to="-2" fromLane="0" toLane="0" dir="r" state="M"/>
    <connection from="-3" to="-1" fromLane="0" toLane="0" dir="s" state="m"/>
    <connection from="-4" to="2" fromLane="0" toLane="0" tl="joinedS_4" linkIndex="10" dir="r" state="o"/>
    <connection from="-4" to="-3" fromLane="0" toLane="0" tl="joinedS_4" linkIndex="11" dir="s" state="o"/>
    <connection from="-6" to="-5" fromLane="0" toLane="0" tl="joinedS_4" linkIndex="4" dir="r" state="o"/>
    <connection from="-6" to="-4" fromLane="0" toLane="0" tl="joinedS_4" linkIndex="5" dir="s" state="o"/>
    <connection from="1" to="3" fromLane="0" toLane="0" dir="s" state="m"/>
    <connection from="1" to="-2" fromLane="0" toLane="0" dir="l" state="m"/>
    <connection from="2" to="-1" fromLane="0" toLane="0" dir="r" state="M"/>
    <connection from="2" to="3" fromLane="0" toLane="0" dir="l" state="M"/>
    <connection from="3" to="4" fromLane="0" toLane="0" tl="joinedS_4" linkIndex="6" dir="s" state="o"/>
    <connection from="3" to="2" fromLane="0" toLane="0" tl="joinedS_4" linkIndex="7" dir="l" state="o"/>
    <connection from="4" to="6" fromLane="0" toLane="0" tl="joinedS_4" linkIndex="0" dir="s" state="o"/>
    <connection from="4" to="-5" fromLane="0" toLane="0" tl="joinedS_4" linkIndex="1" dir="l" state="o"/>
    <connection from="5" to="-4" fromLane="0" toLane="0" tl="joinedS_4" linkIndex="2" dir="r" state="o"/>
    <connection from="5" to="6" fromLane="0" toLane="0" tl="joinedS_4" linkIndex="3" dir="l" state="o"/>

</net>
