<?xml version="1.0" encoding="UTF-8"?>

<!-- generated on Mon Feb 17 15:31:05 2020 by Eclipse SUMO netconvert Version v1_5_0+0130-ceb0a01
This data file and the accompanying materials
are made available under the terms of the Eclipse Public License v2.0
which accompanies this distribution, and is available at
http://www.eclipse.org/legal/epl-v20.html
SPDX-License-Identifier: EPL-2.0
<configuration xmlns:xsi="http://www.w3.org/2001/XMLSchema-instance" xsi:noNamespaceSchemaLocation="http://sumo.dlr.de/xsd/netconvertConfiguration.xsd">

    <input>
        <sumo-net-file value="input_net.net.xml"/>
    </input>

    <output>
        <write-license value="true"/>
    </output>

    <processing>
        <geometry.min-radius.fix.railways value="false"/>
        <geometry.max-grade.fix value="false"/>
        <offset.disable-normalization value="true"/>
        <lefthand value="false"/>
    </processing>

    <junctions>
        <no-internal-links value="true"/>
        <no-turnarounds value="true"/>
        <junctions.join value="true"/>
        <junctions.corner-detail value="0"/>
        <junctions.limit-turn-speed value="-1"/>
        <rectangular-lane-cut value="false"/>
    </junctions>

    <pedestrian>
        <walkingareas value="false"/>
    </pedestrian>

    <report>
        <xml-validation value="never"/>
        <aggregate-warnings value="5"/>
    </report>

</configuration>
-->

<net version="1.6" xmlns:xsi="http://www.w3.org/2001/XMLSchema-instance" xsi:noNamespaceSchemaLocation="http://sumo.dlr.de/xsd/net_file.xsd">

    <location netOffset="0.00,0.00" convBoundary="-7.77,-5.19,177.16,73.86" origBoundary="-10000000000.00,-10000000000.00,10000000000.00,10000000000.00" projParameter="!"/>

    <edge id="gneE10" from="gneJ2" to="gneJ1" priority="1" spreadType="center" shape="83.93,6.61 84.71,73.86 72.05,73.86 72.51,6.61">
        <lane id="gneE10_0" index="0" speed="13.89" length="147.17" shape="84.00,12.22 84.71,73.86 72.05,73.86 72.47,12.26"/>
    </edge>
    <edge id="gneE11" from="gneJ1" to="gneJ12" priority="1" spreadType="center">
        <lane id="gneE11_0" index="0" speed="13.89" length="79.83" shape="66.83,6.75 -7.30,8.54"/>
    </edge>
    <edge id="gneE12" from="gneJ4" to="gneJ2" priority="1" spreadType="center">
        <lane id="gneE12_0" index="0" speed="13.89" length="9.85" shape="84.38,1.62 84.37,1.81"/>
    </edge>
    <edge id="gneE13" from="gneJ1" to="gneJ3" priority="1" spreadType="center">
        <lane id="gneE13_0" index="0" speed="13.89" length="9.63" shape="72.17,1.91 72.16,1.71"/>
    </edge>
    <edge id="gneE6" from="gneJ5" to="gneJ3" priority="1" spreadType="center">
        <lane id="gneE6_0" index="0" speed="13.89" length="79.60" shape="-7.77,-1.91 66.31,-2.92"/>
    </edge>
    <edge id="gneE7" from="gneJ3" to="gneJ4" priority="1" spreadType="center">
        <lane id="gneE7_0" index="0" speed="13.89" length="13.00" shape="77.51,-3.09 79.04,-3.11"/>
    </edge>
    <edge id="gneE8" from="gneJ4" to="gneJ8" priority="1" spreadType="center">
        <lane id="gneE8_0" index="0" speed="13.89" length="92.21" shape="90.25,-3.32 177.01,-5.19"/>
    </edge>
    <edge id="gneE9" from="gneJ9" to="gneJ2" priority="1" spreadType="center">
        <lane id="gneE9_0" index="0" speed="13.89" length="93.23" shape="177.16,6.20 89.69,6.58"/>
    </edge>

    <junction id="gneJ1" type="priority" x="72.51" y="6.61" incLanes="gneE10_0" intLanes="" shape="73.70,0.83 70.51,1.06 66.80,5.15 66.87,8.35 70.87,12.25 74.07,12.27">
        <request index="0" response="00" foes="00"/>
        <request index="1" response="00" foes="00"/>
    </junction>
    <junction id="gneJ12" type="dead_end" x="-7.30" y="8.54" incLanes="gneE11_0" intLanes="" shape="-7.26,10.14 -7.34,6.94"/>
    <junction id="gneJ2" type="priority" x="83.93" y="6.61" incLanes="gneE9_0 gneE12_0" intLanes="" shape="82.40,12.24 85.59,12.20 89.70,8.18 89.68,4.98 86.04,1.02 82.86,0.73">
        <request index="0" response="00" foes="10"/>
        <request index="1" response="01" foes="01"/>
    </junction>
    <junction id="gneJ3" type="unregulated" x="71.82" y="-3.00" incLanes="gneE13_0 gneE6_0" intLanes="" shape="70.63,2.79 73.82,2.56 77.54,-1.49 77.49,-4.69 66.29,-4.52 66.33,-1.32"/>
    <junction id="gneJ4" type="priority" x="84.82" y="-3.20" incLanes="gneE7_0" intLanes="" shape="90.28,-1.72 90.21,-4.92 79.02,-4.71 79.07,-1.51 82.70,2.41 85.89,2.70">
        <request index="0" response="00" foes="00"/>
        <request index="1" response="00" foes="00"/>
    </junction>
    <junction id="gneJ5" type="dead_end" x="-7.77" y="-1.91" incLanes="" intLanes="" shape="-7.75,-0.31 -7.79,-3.51"/>
    <junction id="gneJ8" type="dead_end" x="177.01" y="-5.19" incLanes="gneE8_0" intLanes="" shape="176.98,-6.79 177.04,-3.59"/>
    <junction id="gneJ9" type="dead_end" x="177.16" y="6.20" incLanes="" intLanes="" shape="177.15,4.60 177.17,7.80"/>

    <connection from="gneE10" to="gneE11" fromLane="0" toLane="0" dir="r" state="M"/>
    <connection from="gneE10" to="gneE13" fromLane="0" toLane="0" dir="s" state="M"/>
    <connection from="gneE12" to="gneE10" fromLane="0" toLane="0" dir="s" state="m"/>
    <connection from="gneE13" to="gneE7" fromLane="0" toLane="0" dir="l" state="M"/>
    <connection from="gneE6" to="gneE7" fromLane="0" toLane="0" dir="s" state="M"/>
    <connection from="gneE7" to="gneE8" fromLane="0" toLane="0" dir="s" state="M"/>
    <connection from="gneE7" to="gneE12" fromLane="0" toLane="0" dir="l" state="M"/>
    <connection from="gneE9" to="gneE10" fromLane="0" toLane="0" dir="r" state="M"/>

</net>
