<routes>
    <vType id="t0" vClass="passenger" latAlignment="arbitrary" sigma="0" minGapLat="1.0"/>
    <vType id="t1" vClass="passenger" latAlignment="arbitrary" sigma="0" minGapLat="1.0" width="2.4" decel="1.0"/>

    <route id="r0" edges="end"/>

    <vehicle id="follower"  type="t1"  route="r0" departSpeed="max" departPos="10"  departLane="1" departPosLat="left"  depart="0"/>
    <vehicle id="ego"       type="t0"  route="r0" departSpeed="max" departPos="13"  departLane="0" departPosLat="1.55" depart="0"/>

</routes>
