<?xml version="1.0" encoding="UTF-8"?>

<!-- generated on 11/10/18 12:20:48 by Eclipse SUMO netedit Version v1_0_1+0573-aa2ea93735
<configuration xmlns:xsi="http://www.w3.org/2001/XMLSchema-instance" xsi:noNamespaceSchemaLocation="https://sumo.dlr.de/xsd/netconvertConfiguration.xsd">

    <input>
        <sumo-net-file value="c:\sumo\sandbox\route_error\a.net.xml"/>
    </input>

    <output>
        <output-file value="c:\sumo\sandbox\route_error\a.net.xml"/>
    </output>

    <processing>
        <offset.disable-normalization value="true"/>
        <lefthand value="false"/>
    </processing>

    <junctions>
        <no-turnarounds value="true"/>
        <junctions.corner-detail value="5"/>
        <junctions.limit-turn-speed value="5.5"/>
        <rectangular-lane-cut value="false"/>
    </junctions>

    <pedestrian>
        <walkingareas value="false"/>
    </pedestrian>

</configuration>
-->

<net version="1.0" junctionCornerDetail="5" limitTurnSpeed="5.50" xmlns:xsi="http://www.w3.org/2001/XMLSchema-instance" xsi:noNamespaceSchemaLocation="https://sumo.dlr.de/xsd/net_file.xsd">

    <location netOffset="0.00,0.00" convBoundary="0.00,-5.00,120.00,20.00" origBoundary="-10000000000.00,-10000000000.00,10000000000.00,10000000000.00" projParameter="!"/>

    <edge id=":gneJ1_0" function="internal">
        <lane id=":gneJ1_0_0" index="0" speed="10.00" length="11.20" shape="14.40,0.00 25.60,0.00"/>
    </edge>
    <edge id=":gneJ1_1" function="internal">
        <lane id=":gneJ1_1_0" index="0" speed="10.00" length="9.03" shape="14.40,0.00 16.85,0.35 18.60,1.40 19.65,3.15 20.00,5.60"/>
    </edge>
    <edge id=":gneJ2_0" function="internal">
        <lane id=":gneJ2_0_0" index="0" speed="10.00" length="4.28" shape="100.00,5.60 100.35,3.15 101.28,1.60"/>
    </edge>
    <edge id=":gneJ2_2" function="internal">
        <lane id=":gneJ2_2_0" index="0" speed="10.00" length="4.75" shape="101.28,1.60 101.40,1.40 103.15,0.35 105.60,0.00"/>
    </edge>
    <edge id=":gneJ2_1" function="internal">
        <lane id=":gneJ2_1_0" index="0" speed="10.00" length="11.20" shape="94.40,0.00 105.60,0.00"/>
    </edge>
    <edge id=":gneJ4_0" function="internal">
        <lane id=":gneJ4_0_0" index="0" speed="10.00" length="2.58" shape="20.00,18.40 20.10,19.10 20.40,19.60 20.90,19.90 21.60,20.00"/>
    </edge>
    <edge id=":gneJ5_0" function="internal">
        <lane id=":gneJ5_0_0" index="0" speed="10.00" length="2.58" shape="98.40,20.00 99.10,19.90 99.60,19.60 99.90,19.10 100.00,18.40"/>
    </edge>
    <edge id=":gneJ6_0" function="internal">
        <lane id=":gneJ6_0_0" index="0" speed="10.00" length="40.00" shape="40.00,20.00 80.00,20.00"/>
    </edge>

    <edge id="end" from="gneJ2" to="gneJ3" priority="-1" spreadType="center">
        <lane id="end_0" index="0" speed="10.00" length="14.40" shape="105.60,0.00 120.00,0.00"/>
    </edge>
    <edge id="ext" from="gneJ7" to="gneJ8" priority="-1" spreadType="center">
        <lane id="ext_0" index="0" speed="13.89" length="20.00" shape="50.00,-5.00 70.00,-5.00"/>
    </edge>
    <edge id="long_path_0" from="gneJ1" to="gneJ4" priority="-1" spreadType="center">
        <lane id="long_path_0_0" index="0" speed="10.00" length="12.80" shape="20.00,5.60 20.00,18.40"/>
    </edge>
    <edge id="long_path_1" from="gneJ4" to="gneJ6" priority="-1" spreadType="center" shape="20.00,20.00 40.00,20.00">
        <lane id="long_path_1_0" index="0" speed="10.00" length="18.40" shape="21.60,20.00 40.00,20.00"/>
    </edge>
    <edge id="long_path_2" from="gneJ6" to="gneJ5" priority="-1" spreadType="center" shape="80.00,20.00 100.00,20.00">
        <lane id="long_path_2_0" index="0" speed="10.00" length="18.40" shape="80.00,20.00 98.40,20.00"/>
    </edge>
    <edge id="long_path_3" from="gneJ5" to="gneJ2" priority="-1" spreadType="center">
        <lane id="long_path_3_0" index="0" speed="10.00" length="12.80" shape="100.00,18.40 100.00,5.60"/>
    </edge>
    <edge id="short_0" from="gneJ1" to="gneJ2" priority="-1" spreadType="center">
        <lane id="short_0_0" index="0" speed="10.00" length="68.80" shape="25.60,0.00 94.40,0.00"/>
    </edge>
    <edge id="start" from="gneJ0" to="gneJ1" priority="-1" spreadType="center">
        <lane id="start_0" index="0" speed="10.00" length="14.40" shape="0.00,0.00 14.40,0.00"/>
    </edge>

    <junction id="gneJ0" type="dead_end" x="0.00" y="0.00" incLanes="" intLanes="" shape="0.00,1.60 0.00,-1.60"/>
    <junction id="gneJ1" type="priority" x="20.00" y="0.00" incLanes="start_0" intLanes=":gneJ1_0_0 :gneJ1_1_0" shape="18.40,5.60 21.60,5.60 22.04,3.38 22.60,2.60 23.38,2.04 24.38,1.71 25.60,1.60 25.60,-1.60 14.40,-1.60 14.40,1.60 16.62,2.04 17.40,2.60 17.96,3.38 18.29,4.38">
        <request index="0" response="00" foes="00" cont="0"/>
        <request index="1" response="00" foes="00" cont="0"/>
    </junction>
    <junction id="gneJ2" type="priority" x="100.00" y="0.00" incLanes="long_path_3_0 short_0_0" intLanes=":gneJ2_2_0 :gneJ2_1_0" shape="98.40,5.60 101.60,5.60 102.04,3.38 102.60,2.60 103.38,2.04 104.38,1.71 105.60,1.60 105.60,-1.60 94.40,-1.60 94.40,1.60 96.62,2.04 97.40,2.60 97.96,3.38 98.29,4.38">
        <request index="0" response="10" foes="10" cont="1"/>
        <request index="1" response="00" foes="01" cont="0"/>
    </junction>
    <junction id="gneJ3" type="dead_end" x="120.00" y="0.00" incLanes="end_0" intLanes="" shape="120.00,-1.60 120.00,1.60"/>
    <junction id="gneJ4" type="priority" x="20.00" y="20.00" incLanes="long_path_0_0" intLanes=":gneJ4_0_0" shape="21.60,21.60 21.60,18.40 18.40,18.40 18.76,20.18 19.20,20.80 19.82,21.24 20.62,21.51">
        <request index="0" response="0" foes="0" cont="0"/>
    </junction>
    <junction id="gneJ5" type="priority" x="100.00" y="20.00" incLanes="long_path_2_0" intLanes=":gneJ5_0_0" shape="101.60,18.40 98.40,18.40 98.40,21.60 100.18,21.24 100.80,20.80 101.24,20.18 101.51,19.38">
        <request index="0" response="0" foes="0" cont="0"/>
    </junction>
    <junction id="gneJ6" type="priority" x="60.00" y="20.00" incLanes="long_path_1_0" intLanes=":gneJ6_0_0" shape="80.00,21.60 80.00,18.40 40.00,18.40 40.00,21.60">
        <request index="0" response="0" foes="0" cont="0"/>
    </junction>
    <junction id="gneJ7" type="dead_end" x="50.00" y="-5.00" incLanes="" intLanes="" shape="50.00,-3.40 50.00,-6.60"/>
    <junction id="gneJ8" type="dead_end" x="70.00" y="-5.00" incLanes="ext_0" intLanes="" shape="70.00,-6.60 70.00,-3.40"/>

    <junction id=":gneJ2_2_0" type="internal" x="101.28" y="1.60" incLanes=":gneJ2_0_0 short_0_0" intLanes=":gneJ2_1_0"/>

    <connection from="long_path_0" to="long_path_1" fromLane="0" toLane="0" speed="10.00" via=":gneJ4_0_0" dir="r" state="M"/>
    <connection from="long_path_1" to="long_path_2" fromLane="0" toLane="0" speed="10.00" via=":gneJ6_0_0" dir="s" state="M"/>
    <connection from="long_path_2" to="long_path_3" fromLane="0" toLane="0" speed="10.00" via=":gneJ5_0_0" dir="r" state="M"/>
    <connection from="long_path_3" to="end" fromLane="0" toLane="0" speed="10.00" via=":gneJ2_0_0" dir="l" state="m"/>
    <connection from="short_0" to="end" fromLane="0" toLane="0" speed="10.00" via=":gneJ2_1_0" dir="s" state="M"/>
    <connection from="start" to="short_0" fromLane="0" toLane="0" speed="10.00" via=":gneJ1_0_0" dir="s" state="M"/>
    <connection from="start" to="long_path_0" fromLane="0" toLane="0" speed="10.00" via=":gneJ1_1_0" dir="l" state="M"/>

    <connection from=":gneJ1_0" to="short_0" fromLane="0" toLane="0" dir="s" state="M"/>
    <connection from=":gneJ1_1" to="long_path_0" fromLane="0" toLane="0" dir="l" state="M"/>
    <connection from=":gneJ2_0" to="end" fromLane="0" toLane="0" via=":gneJ2_2_0" dir="l" state="m"/>
    <connection from=":gneJ2_2" to="end" fromLane="0" toLane="0" dir="l" state="M"/>
    <connection from=":gneJ2_1" to="end" fromLane="0" toLane="0" dir="s" state="M"/>
    <connection from=":gneJ4_0" to="long_path_1" fromLane="0" toLane="0" dir="r" state="M"/>
    <connection from=":gneJ5_0" to="long_path_3" fromLane="0" toLane="0" dir="r" state="M"/>
    <connection from=":gneJ6_0" to="long_path_2" fromLane="0" toLane="0" dir="s" state="M"/>

</net>
