<?xml version="1.0" encoding="UTF-8"?>

<!-- generated on 2023-03-02 15:11:12 by Eclipse SUMO netconvert Version v1_16_0+0943-f4d562fe610
This data file and the accompanying materials
are made available under the terms of the Eclipse Public License v2.0
which accompanies this distribution, and is available at
http://www.eclipse.org/legal/epl-v20.html
This file may also be made available under the following Secondary
Licenses when the conditions for such availability set forth in the Eclipse
Public License 2.0 are satisfied: GNU General Public License, version 2
or later which is available at
https://www.gnu.org/licenses/old-licenses/gpl-2.0-standalone.html
SPDX-License-Identifier: EPL-2.0 OR GPL-2.0-or-later
<configuration xmlns:xsi="http://www.w3.org/2001/XMLSchema-instance" xsi:noNamespaceSchemaLocation="http://sumo.dlr.de/xsd/netconvertConfiguration.xsd">

    <input>
        <osm-files value="osm.xml.gz"/>
    </input>

    <output>
        <write-license value="true"/>
    </output>

    <projection>
        <proj.utm value="true"/>
    </projection>

    <report>
        <xml-validation value="never"/>
    </report>

</configuration>
-->

<net version="1.16" junctionCornerDetail="5" limitTurnSpeed="5.50" xmlns:xsi="http://www.w3.org/2001/XMLSchema-instance" xsi:noNamespaceSchemaLocation="http://sumo.dlr.de/xsd/net_file.xsd">

    <location netOffset="-463993.16,-5247059.30" convBoundary="0.00,0.00,666.62,442.23" origBoundary="8.523003,47.376003,8.531847,47.379988" projParameter="+proj=utm +zone=32 +ellps=WGS84 +datum=WGS84 +units=m +no_defs"/>

    <type id="highway.bridleway" priority="1" numLanes="1" speed="2.78" allow="pedestrian" oneway="1" width="2.00"/>
    <type id="highway.bus_guideway" priority="1" numLanes="1" speed="27.78" allow="bus" oneway="1"/>
    <type id="highway.cycleway" priority="1" numLanes="1" speed="5.56" allow="bicycle" oneway="0" width="1.00"/>
    <type id="highway.footway" priority="1" numLanes="1" speed="2.78" allow="pedestrian" oneway="1" width="2.00"/>
    <type id="highway.ford" priority="1" numLanes="1" speed="2.78" allow="army" oneway="0"/>
    <type id="highway.living_street" priority="2" numLanes="1" speed="2.78" disallow="tram rail_urban rail rail_electric rail_fast ship" oneway="0"/>
    <type id="highway.motorway" priority="14" numLanes="2" speed="39.44" allow="private emergency authority army vip passenger hov taxi bus coach delivery truck trailer motorcycle evehicle custom1 custom2" oneway="1"/>
    <type id="highway.motorway_link" priority="9" numLanes="1" speed="22.22" allow="private emergency authority army vip passenger hov taxi bus coach delivery truck trailer motorcycle evehicle custom1 custom2" oneway="1"/>
    <type id="highway.path" priority="1" numLanes="1" speed="5.56" allow="pedestrian bicycle" oneway="0" width="2.00"/>
    <type id="highway.pedestrian" priority="1" numLanes="1" speed="2.78" allow="pedestrian" oneway="1" width="2.00"/>
    <type id="highway.primary" priority="12" numLanes="2" speed="27.78" disallow="tram rail_urban rail rail_electric rail_fast ship" oneway="0"/>
    <type id="highway.primary_link" priority="7" numLanes="1" speed="22.22" disallow="tram rail_urban rail rail_electric rail_fast ship" oneway="0"/>
    <type id="highway.raceway" priority="15" numLanes="2" speed="83.33" allow="vip" oneway="0"/>
    <type id="highway.residential" priority="3" numLanes="1" speed="13.89" disallow="tram rail_urban rail rail_electric rail_fast ship" oneway="0"/>
    <type id="highway.secondary" priority="11" numLanes="1" speed="27.78" disallow="tram rail_urban rail rail_electric rail_fast ship" oneway="0"/>
    <type id="highway.secondary_link" priority="6" numLanes="1" speed="22.22" disallow="tram rail_urban rail rail_electric rail_fast ship" oneway="0"/>
    <type id="highway.service" priority="1" numLanes="1" speed="5.56" allow="pedestrian delivery bicycle" oneway="0"/>
    <type id="highway.stairs" priority="1" numLanes="1" speed="1.39" allow="pedestrian" oneway="1" width="2.00"/>
    <type id="highway.step" priority="1" numLanes="1" speed="1.39" allow="pedestrian" oneway="1" width="2.00"/>
    <type id="highway.steps" priority="1" numLanes="1" speed="1.39" allow="pedestrian" oneway="1" width="2.00"/>
    <type id="highway.tertiary" priority="10" numLanes="1" speed="22.22" disallow="tram rail_urban rail rail_electric rail_fast ship" oneway="0"/>
    <type id="highway.tertiary_link" priority="5" numLanes="1" speed="22.22" disallow="tram rail_urban rail rail_electric rail_fast ship" oneway="0"/>
    <type id="highway.track" priority="1" numLanes="1" speed="5.56" allow="pedestrian motorcycle moped bicycle" oneway="0"/>
    <type id="highway.trunk" priority="13" numLanes="2" speed="27.78" disallow="pedestrian bicycle tram rail_urban rail rail_electric rail_fast ship" oneway="0"/>
    <type id="highway.trunk_link" priority="8" numLanes="1" speed="22.22" disallow="pedestrian bicycle tram rail_urban rail rail_electric rail_fast ship" oneway="0"/>
    <type id="highway.unclassified" priority="4" numLanes="1" speed="13.89" disallow="tram rail_urban rail rail_electric rail_fast ship" oneway="0"/>
    <type id="highway.unsurfaced" priority="1" numLanes="1" speed="8.33" disallow="tram rail_urban rail rail_electric rail_fast ship" oneway="0"/>
    <type id="railway.highspeed" priority="21" numLanes="1" speed="69.44" allow="rail_fast" oneway="1"/>
    <type id="railway.light_rail" priority="19" numLanes="1" speed="27.78" allow="rail_urban" oneway="1"/>
    <type id="railway.preserved" priority="16" numLanes="1" speed="27.78" allow="rail" oneway="1"/>
    <type id="railway.rail" priority="20" numLanes="1" speed="44.44" allow="rail" oneway="1"/>
    <type id="railway.subway" priority="18" numLanes="1" speed="27.78" allow="rail_urban" oneway="1"/>
    <type id="railway.tram" priority="17" numLanes="1" speed="13.89" allow="tram" oneway="1"/>

    <edge id=":1240044516_0" function="internal">
        <lane id=":1240044516_0_0" index="0" disallow="tram rail_urban rail rail_electric rail_fast ship" speed="13.89" length="4.97" shape="492.59,303.24 488.58,306.18"/>
    </edge>
    <edge id=":1240044516_1" function="internal">
        <lane id=":1240044516_1_0" index="0" disallow="tram rail_urban rail rail_electric rail_fast ship" speed="13.89" length="4.99" shape="486.68,303.61 490.71,300.66"/>
    </edge>
    <edge id=":1240044649_0" function="internal">
        <lane id=":1240044649_0_0" index="0" disallow="tram rail_urban rail rail_electric rail_fast ship" speed="13.89" length="5.13" shape="532.51,273.72 528.44,276.84"/>
    </edge>
    <edge id=":1240044649_1" function="internal">
        <lane id=":1240044649_1_0" index="0" disallow="tram rail_urban rail rail_electric rail_fast ship" speed="13.89" length="5.04" shape="526.53,274.28 530.53,271.21"/>
    </edge>
    <edge id=":1240044689_0" function="internal">
        <lane id=":1240044689_0_0" index="0" disallow="tram rail_urban rail rail_electric rail_fast ship" speed="13.89" length="5.05" shape="514.66,287.12 510.59,290.12"/>
    </edge>
    <edge id=":1240044689_1" function="internal">
        <lane id=":1240044689_1_0" index="0" disallow="tram rail_urban rail rail_electric rail_fast ship" speed="13.89" length="5.02" shape="508.71,287.54 512.75,284.56"/>
    </edge>
    <edge id=":1240990695_0" function="internal">
        <lane id=":1240990695_0_0" index="0" disallow="tram rail_urban rail rail_electric rail_fast ship" speed="8.33" length="5.00" shape="374.81,303.12 370.79,306.09"/>
    </edge>
    <edge id=":1243596441_0" function="internal">
        <lane id=":1243596441_0_0" index="0" disallow="tram rail_urban rail rail_electric rail_fast ship" speed="8.33" length="5.00" shape="470.58,231.58 474.58,228.57"/>
    </edge>
    <edge id=":1243596469_0" function="internal">
        <lane id=":1243596469_0_0" index="0" disallow="tram rail_urban rail rail_electric rail_fast ship" speed="8.33" length="5.00" shape="488.23,218.30 492.22,215.29"/>
    </edge>
    <edge id=":1372488903_0" function="internal">
        <lane id=":1372488903_0_0" index="0" disallow="tram rail_urban rail rail_electric rail_fast ship" speed="13.89" length="5.08" shape="520.45,380.90 516.22,383.72"/>
    </edge>
    <edge id=":1372488903_1" function="internal">
        <lane id=":1372488903_1_0" index="0" disallow="tram rail_urban rail rail_electric rail_fast ship" speed="13.89" length="5.03" shape="514.47,381.05 518.65,378.25"/>
    </edge>
    <edge id=":150505784_0" function="internal">
        <lane id=":150505784_0_0" index="0" allow="pedestrian bicycle" speed="5.56" length="8.27" width="2.00" shape="2.84,245.78 1.85,243.64 1.67,241.99 1.98,240.24 2.44,237.81"/>
    </edge>
    <edge id=":150505784_1" function="internal">
        <lane id=":150505784_1_0" index="0" allow="pedestrian bicycle" speed="2.89" length="2.62" width="2.00" shape="2.84,245.78 2.89,244.88 3.20,244.41 3.75,244.37 4.29,244.63"/>
    </edge>
    <edge id=":150505784_4" function="internal">
        <lane id=":150505784_4_0" index="0" allow="pedestrian bicycle" speed="2.89" length="0.30" width="2.00" shape="4.29,244.63 4.57,244.76"/>
    </edge>
    <edge id=":150505784_2" function="internal">
        <lane id=":150505784_2_0" index="0" allow="pedestrian bicycle" speed="5.56" length="6.92" width="2.00" shape="4.42,238.09 4.01,240.12 3.68,241.59 3.76,242.97 4.57,244.76"/>
    </edge>
    <edge id=":150505784_3" function="internal">
        <lane id=":150505784_3_0" index="0" allow="pedestrian bicycle" speed="2.89" length="2.49" width="2.00" shape="4.42,238.09 3.82,238.76 3.29,238.94 2.83,238.62 2.63,238.20"/>
    </edge>
    <edge id=":150505784_5" function="internal">
        <lane id=":150505784_5_0" index="0" allow="pedestrian bicycle" speed="2.89" length="0.43" width="2.00" shape="2.63,238.20 2.44,237.81"/>
    </edge>
    <edge id=":150505790_0" function="internal">
        <lane id=":150505790_0_0" index="0" allow="pedestrian bicycle" speed="5.56" length="5.41" width="2.00" shape="78.56,139.81 77.79,139.12 76.69,138.65 75.27,138.38 73.53,138.32"/>
    </edge>
    <edge id=":150505790_1" function="internal">
        <lane id=":150505790_1_0" index="0" allow="pedestrian bicycle" speed="5.56" length="7.09" width="2.00" shape="78.56,139.81 77.32,138.12 76.61,136.87 76.08,135.52 75.37,133.53"/>
    </edge>
    <edge id=":150505790_2" function="internal">
        <lane id=":150505790_2_0" index="0" allow="pedestrian bicycle" speed="2.89" length="2.92" width="2.00" shape="78.56,139.81 78.49,138.91 78.73,138.40 79.28,138.29 80.14,138.57"/>
    </edge>
    <edge id=":150505790_3" function="internal">
        <lane id=":150505790_3_0" index="0" allow="pedestrian bicycle" speed="5.56" length="6.47" width="2.00" shape="77.25,132.84 77.89,134.65 78.37,135.89 79.01,137.03 80.14,138.57"/>
    </edge>
    <edge id=":150505790_4" function="internal">
        <lane id=":150505790_4_0" index="0" allow="pedestrian bicycle" speed="5.54" length="8.32" width="2.00" shape="77.25,132.84 77.76,135.18 77.31,136.88 75.90,137.93 73.53,138.32"/>
    </edge>
    <edge id=":150505790_5" function="internal">
        <lane id=":150505790_5_0" index="0" allow="pedestrian bicycle" speed="2.89" length="2.92" width="2.00" shape="77.25,132.84 77.04,133.71 76.66,134.12 76.10,134.06 75.37,133.53"/>
    </edge>
    <edge id=":150505790_6" function="internal">
        <lane id=":150505790_6_0" index="0" allow="pedestrian bicycle" speed="4.12" length="4.23" width="2.00" shape="73.48,136.32 74.69,136.12 75.40,135.59 75.63,134.73 75.37,133.53"/>
    </edge>
    <edge id=":150505790_7" function="internal">
        <lane id=":150505790_7_0" index="0" allow="pedestrian bicycle" speed="5.56" length="7.27" width="2.00" shape="73.48,136.32 75.70,136.42 77.55,136.83 79.03,137.55 80.14,138.57"/>
    </edge>
    <edge id=":150505790_8" function="internal">
        <lane id=":150505790_8_0" index="0" allow="pedestrian bicycle" speed="2.89" length="2.92" width="2.00" shape="73.48,136.32 74.24,136.81 74.51,137.30 74.27,137.81 73.53,138.32"/>
    </edge>
    <edge id=":150506156_0" function="internal">
        <lane id=":150506156_0_0" index="0" allow="pedestrian bicycle" speed="5.55" length="8.21" width="2.00" shape="24.27,267.03 22.36,268.41 20.64,268.69 19.10,267.86 17.75,265.93"/>
    </edge>
    <edge id=":150506156_1" function="internal">
        <lane id=":150506156_1_0" index="0" allow="pedestrian bicycle" speed="2.89" length="2.92" width="2.00" shape="24.27,267.03 23.39,267.19 22.86,267.00 22.69,266.47 22.88,265.59"/>
    </edge>
    <edge id=":150506156_2" function="internal">
        <lane id=":150506156_2_0" index="0" allow="pedestrian bicycle" speed="4.14" length="4.21" width="2.00" shape="19.54,265.03 20.23,266.02 21.02,266.44 21.90,266.30 22.88,265.59"/>
    </edge>
    <edge id=":150506156_3" function="internal">
        <lane id=":150506156_3_0" index="0" allow="pedestrian bicycle" speed="2.89" length="2.92" width="2.00" shape="19.54,265.03 19.43,265.92 19.10,266.37 18.54,266.37 17.75,265.93"/>
    </edge>
    <edge id=":150506713_0" function="internal">
        <lane id=":150506713_0_0" index="0" allow="pedestrian bicycle" speed="5.56" length="4.48" width="2.00" shape="99.07,180.29 98.21,179.76 97.22,179.52 96.09,179.59 94.82,179.95"/>
    </edge>
    <edge id=":150506713_1" function="internal">
        <lane id=":150506713_1_0" index="0" allow="pedestrian bicycle" speed="5.56" length="6.58" width="2.00" shape="99.07,180.29 97.65,178.99 96.82,177.93 96.25,176.70 95.61,174.86"/>
    </edge>
    <edge id=":150506713_2" function="internal">
        <lane id=":150506713_2_0" index="0" allow="pedestrian bicycle" speed="2.89" length="2.92" width="2.00" shape="99.07,180.29 98.83,179.42 98.97,178.88 99.48,178.66 100.38,178.77"/>
    </edge>
    <edge id=":150506713_3" function="internal">
        <lane id=":150506713_3_0" index="0" allow="pedestrian bicycle" speed="5.56" length="5.52" width="2.00" shape="97.49,174.20 98.03,175.75 98.50,176.79 99.19,177.68 100.38,178.77"/>
    </edge>
    <edge id=":150506713_4" function="internal">
        <lane id=":150506713_4_0" index="0" allow="pedestrian bicycle" speed="5.56" length="7.17" width="2.00" shape="97.49,174.20 97.87,176.13 97.55,177.72 96.54,179.00 94.82,179.95"/>
    </edge>
    <edge id=":150506713_5" function="internal">
        <lane id=":150506713_5_0" index="0" allow="pedestrian bicycle" speed="2.89" length="2.92" width="2.00" shape="97.49,174.20 97.27,175.08 96.88,175.48 96.32,175.41 95.61,174.86"/>
    </edge>
    <edge id=":150506713_6" function="internal">
        <lane id=":150506713_6_0" index="0" allow="pedestrian bicycle" speed="4.47" length="4.02" width="2.00" shape="94.11,178.08 95.07,177.55 95.64,176.83 95.82,175.94 95.61,174.86"/>
    </edge>
    <edge id=":150506713_7" function="internal">
        <lane id=":150506713_7_0" index="0" allow="pedestrian bicycle" speed="5.56" length="6.63" width="2.00" shape="94.11,178.08 95.92,177.58 97.56,177.53 99.05,177.93 100.38,178.77"/>
    </edge>
    <edge id=":150506713_8" function="internal">
        <lane id=":150506713_8_0" index="0" allow="pedestrian bicycle" speed="2.89" length="2.92" width="2.00" shape="94.11,178.08 94.99,178.28 95.40,178.65 95.35,179.21 94.82,179.95"/>
    </edge>
    <edge id=":150506717_0" function="internal">
        <lane id=":150506717_0_0" index="0" allow="pedestrian bicycle" speed="4.17" length="4.37" width="2.00" shape="85.58,228.01 84.67,227.07 83.79,226.74 82.94,227.03 82.10,227.92"/>
    </edge>
    <edge id=":150506717_1" function="internal">
        <lane id=":150506717_1_0" index="0" allow="pedestrian bicycle" speed="5.56" length="10.76" width="2.00" shape="85.58,228.01 79.21,219.33"/>
    </edge>
    <edge id=":150506717_2" function="internal">
        <lane id=":150506717_2_0" index="0" allow="pedestrian bicycle" speed="5.56" length="11.25" width="2.00" shape="85.58,228.01 83.93,225.34 83.24,223.03 83.25,220.55 83.68,217.37"/>
    </edge>
    <edge id=":150506717_3" function="internal">
        <lane id=":150506717_3_0" index="0" allow="pedestrian bicycle" speed="5.51" length="8.57" width="2.00" shape="85.58,228.01 84.39,225.81 84.37,224.03 85.53,222.68 87.86,221.76"/>
    </edge>
    <edge id=":150506717_4" function="internal">
        <lane id=":150506717_4_0" index="0" allow="pedestrian bicycle" speed="2.89" length="2.92" width="2.00" shape="85.58,228.01 85.54,227.11 85.79,226.61 86.34,226.52 87.19,226.83"/>
    </edge>
    <edge id=":150506717_5" function="internal">
        <lane id=":150506717_5_0" index="0" allow="pedestrian bicycle" speed="4.07" length="4.28" width="2.00" shape="88.33,223.70 87.16,224.16 86.59,224.84 86.59,225.73 87.19,226.83"/>
    </edge>
    <edge id=":150506717_6" function="internal">
        <lane id=":150506717_6_0" index="0" allow="pedestrian bicycle" speed="5.56" length="7.82" width="2.00" shape="88.33,223.70 86.11,224.30 84.64,224.98 83.46,226.08 82.10,227.92"/>
    </edge>
    <edge id=":150506717_7" function="internal">
        <lane id=":150506717_7_0" index="0" allow="pedestrian bicycle" speed="5.56" length="10.75" width="2.00" shape="88.33,223.70 85.88,223.89 83.54,223.22 81.32,221.70 79.21,219.33"/>
    </edge>
    <edge id=":150506717_8" function="internal">
        <lane id=":150506717_8_0" index="0" allow="pedestrian bicycle" speed="5.56" length="9.95" width="2.00" shape="88.33,223.70 85.86,223.84 84.26,222.82 83.53,220.67 83.68,217.37"/>
    </edge>
    <edge id=":150506717_9" function="internal">
        <lane id=":150506717_9_0" index="0" allow="pedestrian bicycle" speed="2.89" length="2.92" width="2.00" shape="88.33,223.70 87.48,223.39 87.12,222.97 87.25,222.42 87.86,221.76"/>
    </edge>
    <edge id=":150506717_10" function="internal">
        <lane id=":150506717_10_0" index="0" allow="pedestrian bicycle" speed="4.62" length="5.73" width="2.00" shape="85.66,217.67 85.53,219.72 85.85,221.09 86.62,221.77 87.86,221.76"/>
    </edge>
    <edge id=":150506717_11" function="internal">
        <lane id=":150506717_11_0" index="0" allow="pedestrian bicycle" speed="5.56" length="9.71" width="2.00" shape="85.66,217.67 85.22,220.51 85.13,222.57 85.69,224.46 87.19,226.83"/>
    </edge>
    <edge id=":150506717_12" function="internal">
        <lane id=":150506717_12_0" index="0" allow="pedestrian bicycle" speed="5.56" length="11.00" width="2.00" shape="85.66,217.67 85.19,220.77 84.66,223.10 83.74,225.27 82.10,227.92"/>
    </edge>
    <edge id=":150506717_13" function="internal">
        <lane id=":150506717_13_0" index="0" allow="pedestrian bicycle" speed="5.56" length="10.80" width="2.00" shape="85.66,217.67 84.76,221.02 83.39,222.42 81.54,221.85 79.21,219.33"/>
    </edge>
    <edge id=":150506717_14" function="internal">
        <lane id=":150506717_14_0" index="0" allow="pedestrian bicycle" speed="2.89" length="2.92" width="2.00" shape="85.66,217.67 85.05,218.33 84.52,218.50 84.07,218.18 83.68,217.37"/>
    </edge>
    <edge id=":150506717_15" function="internal">
        <lane id=":150506717_15_0" index="0" allow="pedestrian bicycle" speed="3.93" length="4.84" width="2.00" shape="80.79,218.10 81.84,219.23 82.67,219.49 83.28,218.87 83.68,217.37"/>
    </edge>
    <edge id=":150506717_16" function="internal">
        <lane id=":150506717_16_0" index="0" allow="pedestrian bicycle" speed="5.56" length="8.44" width="2.00" shape="80.79,218.10 82.49,220.04 84.23,221.30 86.02,221.87 87.86,221.76"/>
    </edge>
    <edge id=":150506717_17" function="internal">
        <lane id=":150506717_17_0" index="0" allow="pedestrian bicycle" speed="5.56" length="10.82" width="2.00" shape="80.79,218.10 87.19,226.83"/>
    </edge>
    <edge id=":150506717_18" function="internal">
        <lane id=":150506717_18_0" index="0" allow="pedestrian bicycle" speed="5.56" length="10.60" width="2.00" shape="80.79,218.10 82.43,220.84 83.20,223.39 83.09,225.75 82.10,227.92"/>
    </edge>
    <edge id=":150506717_19" function="internal">
        <lane id=":150506717_19_0" index="0" allow="pedestrian bicycle" speed="2.89" length="2.92" width="2.00" shape="80.79,218.10 80.86,219.00 80.62,219.51 80.07,219.61 79.21,219.33"/>
    </edge>
    <edge id=":150506717_20" function="internal">
        <lane id=":150506717_20_0" index="0" allow="pedestrian bicycle" speed="5.56" length="8.07" width="2.00" shape="80.45,226.79 81.14,225.21 81.16,223.43 80.52,221.48 79.21,219.33"/>
    </edge>
    <edge id=":150506717_21" function="internal">
        <lane id=":150506717_21_0" index="0" allow="pedestrian bicycle" speed="5.56" length="10.12" width="2.00" shape="80.45,226.79 82.04,224.28 82.84,222.38 83.26,220.34 83.68,217.37"/>
    </edge>
    <edge id=":150506717_22" function="internal">
        <lane id=":150506717_22_0" index="0" allow="pedestrian bicycle" speed="5.56" length="9.31" width="2.00" shape="80.45,226.79 82.06,224.59 83.47,223.28 85.22,222.47 87.86,221.76"/>
    </edge>
    <edge id=":150506717_23" function="internal">
        <lane id=":150506717_23_0" index="0" allow="pedestrian bicycle" speed="5.56" length="8.47" width="2.00" shape="80.45,226.79 82.09,225.02 83.76,224.44 85.46,225.04 87.19,226.83"/>
    </edge>
    <edge id=":150506717_24" function="internal">
        <lane id=":150506717_24_0" index="0" allow="pedestrian bicycle" speed="2.89" length="2.92" width="2.00" shape="80.45,226.79 81.29,226.45 81.84,226.53 82.11,227.02 82.10,227.92"/>
    </edge>
    <edge id=":150506847_0" function="internal">
        <lane id=":150506847_0_0" index="0" allow="pedestrian bicycle" speed="5.56" length="5.37" width="2.00" shape="55.63,213.55 54.11,213.09 53.04,212.87 51.95,212.79 50.36,212.73"/>
    </edge>
    <edge id=":150506847_1" function="internal">
        <lane id=":150506847_1_0" index="0" allow="pedestrian bicycle" speed="2.89" length="2.92" width="2.00" shape="55.63,213.55 55.08,212.84 55.00,212.29 55.39,211.89 56.26,211.65"/>
    </edge>
    <edge id=":150506847_2" function="internal">
        <lane id=":150506847_2_0" index="0" allow="pedestrian bicycle" speed="5.56" length="5.92" width="2.00" shape="50.45,210.73 52.20,210.80 53.41,210.89 54.59,211.14 56.26,211.65"/>
    </edge>
    <edge id=":150506847_3" function="internal">
        <lane id=":150506847_3_0" index="0" allow="pedestrian bicycle" speed="2.89" length="2.92" width="2.00" shape="50.45,210.73 51.18,211.26 51.40,211.77 51.13,212.26 50.36,212.73"/>
    </edge>
    <edge id=":1584034539_0" function="internal">
        <lane id=":1584034539_0_0" index="0" allow="pedestrian bus delivery bicycle" speed="13.89" length="5.34" shape="250.02,1.30 246.67,5.46"/>
    </edge>
    <edge id=":1584034539_1" function="internal">
        <lane id=":1584034539_1_0" index="0" allow="pedestrian bus delivery bicycle" speed="3.65" length="1.44" shape="250.02,1.30 248.64,1.71"/>
    </edge>
    <edge id=":1584034539_4" function="internal">
        <lane id=":1584034539_4_0" index="0" allow="pedestrian bus delivery bicycle" speed="3.65" length="3.23" shape="248.64,1.71 247.77,1.51 247.41,0.69 247.56,-0.75"/>
    </edge>
    <edge id=":1584034539_2" function="internal">
        <lane id=":1584034539_2_0" index="0" allow="pedestrian bus delivery bicycle" speed="13.89" length="5.43" shape="244.15,3.49 247.56,-0.75"/>
    </edge>
    <edge id=":1584034539_3" function="internal">
        <lane id=":1584034539_3_0" index="0" allow="pedestrian bus delivery bicycle" speed="3.65" length="1.44" shape="244.15,3.49 245.52,3.03"/>
    </edge>
    <edge id=":1584034539_5" function="internal">
        <lane id=":1584034539_5_0" index="0" allow="pedestrian bus delivery bicycle" speed="3.65" length="3.23" shape="245.52,3.03 246.40,3.21 246.78,4.02 246.67,5.46"/>
    </edge>
    <edge id=":1584034542_0" function="internal">
        <lane id=":1584034542_0_0" index="0" allow="pedestrian bus delivery bicycle" speed="13.89" length="6.64" shape="217.18,35.58 212.27,40.05"/>
    </edge>
    <edge id=":1584034542_1" function="internal">
        <lane id=":1584034542_1_0" index="0" allow="pedestrian bus delivery bicycle" speed="3.65" length="1.44" shape="217.18,35.58 215.75,35.80"/>
    </edge>
    <edge id=":1584034542_4" function="internal">
        <lane id=":1584034542_4_0" index="0" allow="pedestrian bus delivery bicycle" speed="3.65" length="3.23" shape="215.75,35.80 214.92,35.49 214.67,34.63 215.01,33.23"/>
    </edge>
    <edge id=":1584034542_2" function="internal">
        <lane id=":1584034542_2_0" index="0" allow="pedestrian bus delivery bicycle" speed="13.89" length="6.60" shape="210.13,37.67 215.01,33.23"/>
    </edge>
    <edge id=":1584034542_3" function="internal">
        <lane id=":1584034542_3_0" index="0" allow="pedestrian bus delivery bicycle" speed="3.65" length="1.44" shape="210.13,37.67 211.56,37.46"/>
    </edge>
    <edge id=":1584034542_5" function="internal">
        <lane id=":1584034542_5_0" index="0" allow="pedestrian bus delivery bicycle" speed="3.65" length="3.23" shape="211.56,37.46 212.39,37.79 212.63,38.66 212.27,40.05"/>
    </edge>
    <edge id=":1584034560_0" function="internal">
        <lane id=":1584034560_0_0" index="0" disallow="tram rail_urban rail rail_electric rail_fast ship" speed="13.89" length="6.15" shape="197.87,55.30 196.28,56.30 195.18,56.96 194.05,57.57 192.38,58.41"/>
        <lane id=":1584034560_0_1" index="1" disallow="tram rail_urban rail rail_electric rail_fast ship" speed="13.89" length="6.15" shape="196.16,52.59 194.66,53.54 193.62,54.17 192.55,54.75 190.96,55.54"/>
    </edge>
    <edge id=":1584034560_2" function="internal">
        <lane id=":1584034560_2_0" index="0" disallow="tram rail_urban rail rail_electric rail_fast ship" speed="13.89" length="5.49" shape="188.13,49.80 189.54,49.09 190.49,48.58 191.42,48.02 192.76,47.18"/>
        <lane id=":1584034560_2_1" index="1" disallow="tram rail_urban rail rail_electric rail_fast ship" speed="13.89" length="5.49" shape="189.55,52.67 191.05,51.92 192.06,51.37 193.04,50.78 194.46,49.88"/>
    </edge>
    <edge id=":1584034574_0" function="internal">
        <lane id=":1584034574_0_0" index="0" disallow="tram rail_urban rail rail_electric rail_fast ship" speed="13.89" length="5.50" shape="207.94,62.79 205.52,57.84"/>
    </edge>
    <edge id=":1584034574_1" function="internal">
        <lane id=":1584034574_1_0" index="0" disallow="tram rail_urban rail rail_electric rail_fast ship" speed="13.89" length="5.22" shape="211.36,55.22 213.61,59.82"/>
        <lane id=":1584034574_1_1" index="1" disallow="tram rail_urban rail rail_electric rail_fast ship" speed="13.89" length="5.22" shape="208.44,56.53 210.77,61.30"/>
    </edge>
    <edge id=":1584034740_0" function="internal">
        <lane id=":1584034740_0_0" index="0" disallow="tram rail_urban rail rail_electric rail_fast ship" speed="8.33" length="5.50" shape="280.87,126.66 280.52,121.17"/>
    </edge>
    <edge id=":1584034753_0" function="internal">
        <lane id=":1584034753_0_0" index="0" disallow="tram rail_urban rail rail_electric rail_fast ship" speed="13.89" length="5.93" shape="248.59,145.62 246.10,140.23"/>
    </edge>
    <edge id=":1584034753_1" function="internal">
        <lane id=":1584034753_1_0" index="0" disallow="tram rail_urban rail rail_electric rail_fast ship" speed="13.89" length="6.00" shape="251.89,137.51 254.42,142.98"/>
        <lane id=":1584034753_1_1" index="1" disallow="tram rail_urban rail rail_electric rail_fast ship" speed="13.89" length="6.00" shape="249.00,138.87 251.51,144.30"/>
    </edge>
    <edge id=":1584034770_0" function="internal">
        <lane id=":1584034770_0_0" index="0" disallow="tram rail_urban rail rail_electric rail_fast ship" speed="8.33" length="4.38" shape="243.70,157.71 247.41,155.38"/>
    </edge>
    <edge id=":2261078797_0" function="internal">
        <lane id=":2261078797_0_0" index="0" disallow="tram rail_urban rail rail_electric rail_fast ship" speed="8.33" length="6.68" shape="195.37,34.54 192.64,28.44"/>
    </edge>
    <edge id=":2261078797_1" function="internal">
        <lane id=":2261078797_1_0" index="0" disallow="tram rail_urban rail rail_electric rail_fast ship" speed="8.33" length="6.85" shape="198.43,25.74 201.26,32.04"/>
        <lane id=":2261078797_1_1" index="1" disallow="tram rail_urban rail rail_electric rail_fast ship" speed="8.33" length="6.85" shape="195.54,27.09 198.31,33.29"/>
    </edge>
    <edge id=":2261078812_0" function="internal">
        <lane id=":2261078812_0_0" index="0" disallow="tram rail_urban rail rail_electric rail_fast ship" speed="13.89" length="5.18" shape="72.13,118.62 67.50,121.02"/>
        <lane id=":2261078812_0_1" index="1" disallow="tram rail_urban rail rail_electric rail_fast ship" speed="13.89" length="5.18" shape="70.63,115.79 66.06,118.16"/>
    </edge>
    <edge id=":2261078812_2" function="internal">
        <lane id=":2261078812_2_0" index="0" disallow="tram rail_urban rail rail_electric rail_fast ship" speed="13.89" length="5.06" shape="63.17,112.45 67.63,110.14"/>
        <lane id=":2261078812_2_1" index="1" disallow="tram rail_urban rail rail_electric rail_fast ship" speed="13.89" length="5.06" shape="64.61,115.31 69.13,112.97"/>
    </edge>
    <edge id=":2261078846_0" function="internal">
        <lane id=":2261078846_0_0" index="0" allow="pedestrian bicycle" speed="2.89" length="2.92" width="2.00" shape="9.68,210.85 8.96,210.32 8.73,209.80 9.00,209.32 9.77,208.85"/>
    </edge>
    <edge id=":2261078853_0" function="internal">
        <lane id=":2261078853_0_0" index="0" allow="pedestrian bicycle" speed="5.56" length="5.43" width="2.00" shape="13.80,259.96 12.45,259.59 11.28,258.98 10.28,258.11 9.46,256.99"/>
    </edge>
    <edge id=":2261078853_1" function="internal">
        <lane id=":2261078853_1_0" index="0" allow="pedestrian bicycle" speed="2.89" length="2.92" width="2.00" shape="13.80,259.96 13.14,259.34 12.97,258.81 13.30,258.36 14.12,257.99"/>
    </edge>
    <edge id=":2261078853_2" function="internal">