<?xml version="1.0" encoding="UTF-8"?>

<!-- generated on 2025-02-25 17:55:44 by Eclipse SUMO sumo Version v1_22_0+0506-a8106d4d0ee
This data file and the accompanying materials
are made available under the terms of the Eclipse Public License v2.0
which accompanies this distribution, and is available at
http://www.eclipse.org/legal/epl-v20.html
This file may also be made available under the following Secondary
Licenses when the conditions for such availability set forth in the Eclipse
Public License 2.0 are satisfied: GNU General Public License, version 2
or later which is available at
https://www.gnu.org/licenses/old-licenses/gpl-2.0-standalone.html
SPDX-License-Identifier: EPL-2.0 OR GPL-2.0-or-later
<sumoConfiguration xmlns:xsi="http://www.w3.org/2001/XMLSchema-instance" xsi:noNamespaceSchemaLocation="http://sumo.dlr.de/xsd/sumoConfiguration.xsd">

    <input>
        <net-file value="motorway.net.xml"/>
        <route-files value="input_routes.rou.xml"/>
    </input>

    <output>
        <write-license value="true"/>
        <tripinfo-output value="tripinfos.xml"/>
        <lanechange-output value="lanechanges.xml"/>
    </output>

    <processing>
        <lateral-resolution value="0.8"/>
        <default.speeddev value="0"/>
    </processing>

    <report>
        <xml-validation value="never"/>
        <duration-log.disable value="true"/>
        <no-step-log value="true"/>
    </report>

</sumoConfiguration>
-->

<lanechanges>
    <change id="overtaking" type="DEFAULT_VEHTYPE" time="4.00" from="beg_0" to="beg_1" dir="1" speed="36.00" pos="2804.00" reason="speedGain" leaderGap="137.00" leaderSecureGap="162.00" leaderSpeed="0.00" followerGap="None" followerSecureGap="None" followerSpeed="None" origLeaderGap="137.00" origLeaderSecureGap="162.00" origLeaderSpeed="0.00" latGap="None"/>
    <change id="overtaking" type="DEFAULT_VEHTYPE" time="7.00" from="beg_1" to="beg_2" dir="1" speed="23.56" pos="2888.19" reason="strategic|urgent" leaderGap="None" leaderSecureGap="None" leaderSpeed="None" followerGap="None" followerSecureGap="None" followerSpeed="None" origLeaderGap="52.81" origLeaderSecureGap="50.31" origLeaderSpeed="0.00" latGap="None"/>
    <change id="overtaking2" type="DEFAULT_VEHTYPE" time="14.00" from="beg_0" to="beg_1" dir="1" speed="26.31" pos="2874.44" reason="speedGain" leaderGap="66.56" leaderSecureGap="64.06" leaderSpeed="0.00" followerGap="None" followerSecureGap="None" followerSpeed="None" origLeaderGap="66.56" origLeaderSecureGap="64.06" origLeaderSpeed="0.00" latGap="None"/>
    <change id="overtaking2" type="DEFAULT_VEHTYPE" time="17.00" from="beg_1" to="beg_2" dir="1" speed="12.81" pos="2926.37" reason="strategic|urgent" leaderGap="None" leaderSecureGap="None" leaderSpeed="None" followerGap="None" followerSecureGap="None" followerSpeed="None" origLeaderGap="14.63" origLeaderSecureGap="12.12" origLeaderSpeed="0.00" latGap="None"/>
</lanechanges>
