<?xml version="1.0" encoding="UTF-8"?>

<!-- generated on 2024-06-06 08:26:46 by Eclipse SUMO netedit Version v1_20_0+0347-e1e273b3b3e
-->

<routes xmlns:xsi="http://www.w3.org/2001/XMLSchema-instance" xsi:noNamespaceSchemaLocation="http://sumo.dlr.de/xsd/routes_file.xsd">
    <!-- Routes -->
    <route id="r_0" edges="Edge0 Edge1 Edge2"/>
    <!-- Vehicles, persons and containers (sorted by depart) -->
    <flow id="f_0" begin="0.00" route="r_0" end="3600.00" vehsPerHour="180"/>
</routes>
