<?xml version="1.0"?>

<!-- generated on 03/18/10 13:38:07 by SUMO sumo Version dev-SVN-r8460
<configuration>

    <input>
        <net-file value="net.net.xml"/>
        <additional-files value="input_routes.rou.xml,input_additional.add.xml"/>
    </input>

    <time>
        <begin value="0"/>
        <end value="150"/>
    </time>

    <report>
        <no-duration-log value="true"/>
        <no-step-log value="true"/>
    </report>

</configuration>
-->

<netstats>
    <interval begin="0.00" end="60.00" id="dump_60">
        <edge id="1si">
            <lane id="1si_0" sampledSeconds="2.00" traveltime="33.69" density="0.14" occupancy="0.07" waitingTime="0.00" speed="7.04" departed="2" arrived="0" entered="0" left="0" laneChangedFrom="2" laneChangedTo="0"/>
            <lane id="1si_1" sampledSeconds="2.00" traveltime="33.51" density="0.14" occupancy="0.07" waitingTime="0.00" speed="7.08" departed="0" arrived="0" entered="0" left="0" laneChangedFrom="2" laneChangedTo="2"/>
            <lane id="1si_2" sampledSeconds="83.16" traveltime="80.15" density="5.84" occupancy="2.92" waitingTime="21.65" speed="2.96" departed="0" arrived="0" entered="0" left="2" laneChangedFrom="0" laneChangedTo="2"/>
        </edge>
        <edge id="4o">
            <lane id="4o_0" sampledSeconds="1.84" traveltime="282.43" density="0.06" occupancy="0.03" waitingTime="0.00" speed="1.73" departed="0" arrived="2" entered="2" left="0" laneChangedFrom="0" laneChangedTo="0"/>
        </edge>
    </interval>
    <interval begin="60.00" end="120.00" id="dump_60">
    </interval>
    <interval begin="120.00" end="150.00" id="dump_60">
    </interval>
</netstats>
