<?xml version="1.0" encoding="UTF-8"?>

<!-- generated on 2022-02-14 09:11:32 by Eclipse SUMO netedit Version v1_12_0+0502-21666d1b3bb
-->

<additional xmlns:xsi="http://www.w3.org/2001/XMLSchema-instance" xsi:noNamespaceSchemaLocation="http://sumo.dlr.de/xsd/additional_file.xsd">
    <routeProbe id="rp_0" begin="0.00" freq="120.00" edge="gneE0" file="rp_0.xml"/>
</additional>
