<?xml version="1.0" encoding="UTF-8"?>

<!-- generated on 2021-08-16 15:46:25 by Eclipse SUMO sumo Version v1_9_2+1069-f9b761f
This data file and the accompanying materials
are made available under the terms of the Eclipse Public License v2.0
which accompanies this distribution, and is available at
http://www.eclipse.org/legal/epl-v20.html
SPDX-License-Identifier: EPL-2.0
<configuration xmlns:xsi="http://www.w3.org/2001/XMLSchema-instance" xsi:noNamespaceSchemaLocation="http://sumo.dlr.de/xsd/sumoConfiguration.xsd">

    <input>
        <net-file value="net2.net.xml"/>
        <route-files value="input_routes.rou.xml"/>
    </input>

    <output>
        <write-license value="true"/>
        <link-output value="linkstate.xml"/>
    </output>

    <processing>
        <default.speeddev value="0"/>
    </processing>

    <report>
        <xml-validation value="never"/>
        <xml-validation.routes value="never"/>
        <duration-log.disable value="true"/>
        <no-step-log value="true"/>
    </report>

</configuration>
-->

<link-output>
    <timestep id="0.00"/>
    <timestep id="1.00"/>
    <timestep id="2.00"/>
    <timestep id="3.00">
        <link from=":C_1_0" via="" to="CS_0">
            <approaching id="foe" impatience="0.00" arrivalTime="13.79" arrivalTimeBraking="43.79" leaveTime="14.32" arrivalSpeed="9.51" arrivalSpeedBraking="0.00" leaveSpeed="9.51" willPass="1"/>
        </link>
        <link from=":C_13_0" via=":C_24_0" to="CW_1">
            <approaching id="ego" impatience="0.00" arrivalTime="10.88" arrivalTimeBraking="40.88" leaveTime="12.19" arrivalSpeed="9.70" arrivalSpeedBraking="0.00" leaveSpeed="11.92" willPass="1"/>
        </link>
        <link from=":C_24_0" via="" to="CW_1">
            <approaching id="ego" impatience="0.00" arrivalTime="11.20" arrivalTimeBraking="41.20" leaveTime="11.68" arrivalSpeed="10.43" arrivalSpeedBraking="0.00" leaveSpeed="10.43" willPass="1"/>
        </link>
        <link from="NC_0" via=":C_1_0" to="CS_0">
            <approaching id="foe" impatience="0.00" arrivalTime="10.02" arrivalTimeBraking="40.02" leaveTime="11.54" arrivalSpeed="13.89" arrivalSpeedBraking="0.00" leaveSpeed="13.89" willPass="1"/>
        </link>
        <link from="SC_1" via=":C_13_0" to="CW_1">
            <approaching id="ego" impatience="0.00" arrivalTime="9.85" arrivalTimeBraking="39.85" leaveTime="10.89" arrivalSpeed="10.22" arrivalSpeedBraking="0.00" leaveSpeed="11.74" willPass="1"/>
        </link>
    </timestep>
    <timestep id="4.00">
        <link from=":C_1_0" via="" to="CS_0">
            <approaching id="foe" impatience="0.00" arrivalTime="13.05" arrivalTimeBraking="43.05" leaveTime="13.53" arrivalSpeed="10.52" arrivalSpeedBraking="0.00" leaveSpeed="10.52" willPass="1"/>
        </link>
        <link from=":C_13_0" via=":C_24_0" to="CW_1">
            <approaching id="ego" impatience="0.00" arrivalTime="10.47" arrivalTimeBraking="40.47" leaveTime="11.73" arrivalSpeed="10.22" arrivalSpeedBraking="0.00" leaveSpeed="12.34" willPass="1"/>
        </link>
        <link from=":C_24_0" via="" to="CW_1">
            <approaching id="ego" impatience="0.00" arrivalTime="10.02" arrivalTimeBraking="40.02" leaveTime="10.42" arrivalSpeed="12.50" arrivalSpeedBraking="0.00" leaveSpeed="12.50" willPass="1"/>
        </link>
        <link from="NC_0" via=":C_1_0" to="CS_0">
            <approaching id="foe" impatience="0.00" arrivalTime="10.11" arrivalTimeBraking="40.11" leaveTime="11.63" arrivalSpeed="13.89" arrivalSpeedBraking="0.00" leaveSpeed="13.89" willPass="1"/>
        </link>
        <link from="SC_1" via=":C_13_0" to="CW_1">
            <approaching id="ego" impatience="0.00" arrivalTime="9.85" arrivalTimeBraking="39.85" leaveTime="10.89" arrivalSpeed="10.22" arrivalSpeedBraking="0.00" leaveSpeed="11.74" willPass="1"/>
        </link>
    </timestep>
    <timestep id="5.00">
        <link from=":C_1_0" via="" to="CS_0">
            <approaching id="foe" impatience="0.00" arrivalTime="12.20" arrivalTimeBraking="42.20" leaveTime="12.62" arrivalSpeed="12.02" arrivalSpeedBraking="0.00" leaveSpeed="12.02" willPass="1"/>
        </link>
        <link from=":C_13_0" via=":C_24_0" to="CW_1">
            <approaching id="ego" impatience="0.00" arrivalTime="9.24" arrivalTimeBraking="39.24" leaveTime="10.50" arrivalSpeed="10.22" arrivalSpeedBraking="0.00" leaveSpeed="12.34" willPass="1"/>
        </link>
        <link from=":C_24_0" via="" to="CW_1">
            <approaching id="ego" impatience="0.00" arrivalTime="9.52" arrivalTimeBraking="39.52" leaveTime="9.88" arrivalSpeed="13.89" arrivalSpeedBraking="0.00" leaveSpeed="13.89" willPass="1"/>
        </link>
        <link from="NC_0" via=":C_1_0" to="CS_0">
            <approaching id="foe" impatience="0.00" arrivalTime="10.21" arrivalTimeBraking="40.21" leaveTime="11.72" arrivalSpeed="13.89" arrivalSpeedBraking="0.00" leaveSpeed="13.89" willPass="1"/>
        </link>
        <link from="SC_1" via=":C_13_0" to="CW_1">
            <approaching id="ego" impatience="0.00" arrivalTime="8.75" arrivalTimeBraking="38.75" leaveTime="9.79" arrivalSpeed="10.22" arrivalSpeedBraking="0.00" leaveSpeed="11.74" willPass="1"/>
        </link>
    </timestep>
    <timestep id="6.00">
        <link from=":C_1_0" via="" to="CS_0">
            <approaching id="foe" impatience="0.00" arrivalTime="11.47" arrivalTimeBraking="41.47" leaveTime="11.83" arrivalSpeed="13.85" arrivalSpeedBraking="0.00" leaveSpeed="13.85" willPass="1"/>
        </link>
        <link from=":C_13_0" via=":C_24_0" to="CW_1">
            <approaching id="ego" impatience="0.00" arrivalTime="9.01" arrivalTimeBraking="39.01" leaveTime="10.28" arrivalSpeed="10.22" arrivalSpeedBraking="0.00" leaveSpeed="12.34" willPass="1"/>
        </link>
        <link from=":C_24_0" via="" to="CW_1">
            <approaching id="ego" impatience="0.00" arrivalTime="9.57" arrivalTimeBraking="39.57" leaveTime="9.93" arrivalSpeed="13.89" arrivalSpeedBraking="0.00" leaveSpeed="13.89" willPass="1"/>
        </link>
        <link from="NC_0" via=":C_1_0" to="CS_0">
            <approaching id="foe" impatience="0.00" arrivalTime="10.30" arrivalTimeBraking="40.30" leaveTime="11.82" arrivalSpeed="13.89" arrivalSpeedBraking="0.00" leaveSpeed="13.89" willPass="1"/>
        </link>
        <link from="SC_1" via=":C_13_0" to="CW_1">
            <approaching id="ego" impatience="0.00" arrivalTime="8.55" arrivalTimeBraking="38.55" leaveTime="9.59" arrivalSpeed="10.22" arrivalSpeedBraking="0.00" leaveSpeed="11.74" willPass="1"/>
        </link>
    </timestep>
    <timestep id="7.00">
        <link from=":C_1_0" via="" to="CS_0">
            <approaching id="foe" impatience="0.00" arrivalTime="11.55" arrivalTimeBraking="41.55" leaveTime="11.91" arrivalSpeed="13.89" arrivalSpeedBraking="0.00" leaveSpeed="13.89" willPass="1"/>
        </link>
        <link from=":C_13_0" via=":C_24_0" to="CW_1">
            <approaching id="ego" impatience="0.00" arrivalTime="9.01" arrivalTimeBraking="39.01" leaveTime="10.28" arrivalSpeed="10.22" arrivalSpeedBraking="0.00" leaveSpeed="12.34" willPass="1"/>
        </link>
        <link from=":C_24_0" via="" to="CW_1">
            <approaching id="ego" impatience="0.00" arrivalTime="9.57" arrivalTimeBraking="39.57" leaveTime="9.93" arrivalSpeed="13.89" arrivalSpeedBraking="0.00" leaveSpeed="13.89" willPass="1"/>
        </link>
        <link from="NC_0" via=":C_1_0" to="CS_0">
            <approaching id="foe" impatience="0.00" arrivalTime="10.39" arrivalTimeBraking="40.39" leaveTime="11.91" arrivalSpeed="13.89" arrivalSpeedBraking="0.00" leaveSpeed="13.89" willPass="1"/>
        </link>
        <link from="SC_1" via=":C_13_0" to="CW_1">
            <approaching id="ego" impatience="0.00" arrivalTime="8.55" arrivalTimeBraking="38.55" leaveTime="9.59" arrivalSpeed="10.22" arrivalSpeedBraking="0.00" leaveSpeed="11.74" willPass="1"/>
        </link>
    </timestep>
    <timestep id="8.00">
        <link from=":C_1_0" via="" to="CS_0">
            <approaching id="foe" impatience="0.00" arrivalTime="11.60" arrivalTimeBraking="41.60" leaveTime="11.96" arrivalSpeed="13.89" arrivalSpeedBraking="0.00" leaveSpeed="13.89" willPass="1"/>
        </link>
        <link from=":C_13_0" via=":C_24_0" to="CW_1">
            <approaching id="ego" impatience="0.00" arrivalTime="9.01" arrivalTimeBraking="10.32" leaveTime="10.28" arrivalSpeed="10.22" arrivalSpeedBraking="8.92" leaveSpeed="12.34" willPass="1"/>
        </link>
        <link from=":C_24_0" via="" to="CW_1">
            <approaching id="ego" impatience="0.00" arrivalTime="9.57" arrivalTimeBraking="39.57" leaveTime="9.93" arrivalSpeed="13.89" arrivalSpeedBraking="0.00" leaveSpeed="13.89" willPass="1"/>
        </link>
        <link from="NC_0" via=":C_1_0" to="CS_0">
            <approaching id="foe" impatience="0.00" arrivalTime="10.45" arrivalTimeBraking="40.45" leaveTime="11.96" arrivalSpeed="13.89" arrivalSpeedBraking="0.00" leaveSpeed="13.89" willPass="1"/>
        </link>
        <link from="SC_1" via=":C_13_0" to="CW_1">
            <approaching id="ego" impatience="0.00" arrivalTime="8.55" arrivalTimeBraking="9.67" leaveTime="9.59" arrivalSpeed="10.22" arrivalSpeedBraking="10.22" leaveSpeed="11.74" willPass="1"/>
        </link>
    </timestep>
    <timestep id="9.00">
        <link from=":C_1_0" via="" to="CS_0">
            <approaching id="foe" impatience="0.00" arrivalTime="11.60" arrivalTimeBraking="41.60" leaveTime="11.96" arrivalSpeed="13.89" arrivalSpeedBraking="0.00" leaveSpeed="13.89" willPass="1"/>
        </link>
        <link from=":C_13_0" via=":C_24_0" to="CW_1">
            <approaching id="ego" impatience="0.00" arrivalTime="9.06" arrivalTimeBraking="10.09" leaveTime="10.32" arrivalSpeed="10.22" arrivalSpeedBraking="10.22" leaveSpeed="12.34" willPass="1"/>
        </link>
        <link from=":C_24_0" via="" to="CW_1">
            <approaching id="ego" impatience="0.00" arrivalTime="9.61" arrivalTimeBraking="10.82" leaveTime="9.97" arrivalSpeed="13.89" arrivalSpeedBraking="10.78" leaveSpeed="13.89" willPass="1"/>
        </link>
        <link from="NC_0" via=":C_1_0" to="CS_0">
            <approaching id="foe" impatience="0.00" arrivalTime="10.45" arrivalTimeBraking="40.45" leaveTime="11.96" arrivalSpeed="13.89" arrivalSpeedBraking="0.00" leaveSpeed="13.89" willPass="1"/>
        </link>
        <link from="SC_1" via=":C_13_0" to="CW_1">
            <approaching id="ego" impatience="0.00" arrivalTime="8.49" arrivalTimeBraking="9.49" leaveTime="9.31" arrivalSpeed="13.89" arrivalSpeedBraking="13.89" leaveSpeed="13.89" willPass="1"/>
        </link>
    </timestep>
    <timestep id="10.00">
        <link from=":C_1_0" via="" to="CS_0">
            <approaching id="foe" impatience="0.00" arrivalTime="11.60" arrivalTimeBraking="41.60" leaveTime="11.96" arrivalSpeed="13.89" arrivalSpeedBraking="0.00" leaveSpeed="13.89" willPass="1"/>
        </link>
        <link from=":C_13_0" via=":C_24_0" to="CW_1">
            <approaching id="ego" impatience="0.00" arrivalTime="9.37" arrivalTimeBraking="10.37" leaveTime="10.45" arrivalSpeed="12.36" arrivalSpeedBraking="12.36" leaveSpeed="13.89" willPass="1"/>
        </link>
        <link from=":C_24_0" via="" to="CW_1">
            <approaching id="ego" impatience="0.00" arrivalTime="10.08" arrivalTimeBraking="11.25" leaveTime="10.45" arrivalSpeed="13.33" arrivalSpeedBraking="10.47" leaveSpeed="13.33" willPass="1"/>
        </link>
        <link from="NC_0" via=":C_1_0" to="CS_0">
            <approaching id="foe" impatience="0.00" arrivalTime="10.45" arrivalTimeBraking="11.57" leaveTime="11.96" arrivalSpeed="13.89" arrivalSpeedBraking="11.72" leaveSpeed="13.89" willPass="1"/>
        </link>
    </timestep>
    <timestep id="11.00">
        <link from=":C_1_0" via="" to="CS_0">
            <approaching id="foe" impatience="0.00" arrivalTime="11.60" arrivalTimeBraking="12.80" leaveTime="11.96" arrivalSpeed="13.89" arrivalSpeedBraking="10.84" leaveSpeed="13.89" willPass="1"/>
        </link>
        <link from=":C_13_0" via=":C_24_0" to="CW_1">
            <approaching id="ego" impatience="0.00" arrivalTime="10.02" arrivalTimeBraking="11.02" leaveTime="11.72" arrivalSpeed="6.93" arrivalSpeedBraking="6.93" leaveSpeed="9.80" willPass="1"/>
        </link>
        <link from=":C_24_0" via="" to="CW_1">
            <approaching id="ego" impatience="0.00" arrivalTime="11.12" arrivalTimeBraking="41.12" leaveTime="11.63" arrivalSpeed="9.77" arrivalSpeedBraking="0.00" leaveSpeed="9.77" willPass="1"/>
        </link>
        <link from="NC_0" via=":C_1_0" to="CS_0">
            <approaching id="foe" impatience="0.00" arrivalTime="10.45" arrivalTimeBraking="11.45" leaveTime="11.96" arrivalSpeed="13.89" arrivalSpeedBraking="13.89" leaveSpeed="13.89" willPass="1"/>
        </link>
    </timestep>
    <timestep id="12.00">
        <link from=":C_1_0" via="" to="CS_0">
            <approaching id="foe" impatience="0.00" arrivalTime="11.60" arrivalTimeBraking="12.60" leaveTime="11.96" arrivalSpeed="13.89" arrivalSpeedBraking="13.89" leaveSpeed="13.89" willPass="1"/>
        </link>
        <link from=":C_13_0" via=":C_24_0" to="CW_1">
            <approaching id="ego" impatience="0.01" arrivalTime="11.04" arrivalTimeBraking="12.04" leaveTime="21.58" arrivalSpeed="2.70" arrivalSpeedBraking="2.70" leaveSpeed="0.00" willPass="1"/>
        </link>
        <link from=":C_24_0" via="" to="CW_1">
            <approaching id="ego" impatience="0.01" arrivalTime="104.31" arrivalTimeBraking="134.31" leaveTime="5104.31" arrivalSpeed="0.00" arrivalSpeedBraking="0.00" leaveSpeed="0.00" willPass="1"/>
        </link>
    </timestep>
    <timestep id="13.00">
        <link from=":C_13_0" via=":C_24_0" to="CW_1">
            <approaching id="ego" impatience="0.00" arrivalTime="12.04" arrivalTimeBraking="13.04" leaveTime="14.85" arrivalSpeed="2.70" arrivalSpeedBraking="2.70" leaveSpeed="7.44" willPass="1"/>
        </link>
        <link from=":C_24_0" via="" to="CW_1">
            <approaching id="ego" impatience="0.00" arrivalTime="13.86" arrivalTimeBraking="43.86" leaveTime="14.54" arrivalSpeed="7.40" arrivalSpeedBraking="0.00" leaveSpeed="7.40" willPass="1"/>
        </link>
    </timestep>
    <timestep id="14.00">
        <link from=":C_24_0" via="" to="CW_1">
            <approaching id="ego" impatience="0.00" arrivalTime="14.03" arrivalTimeBraking="44.03" leaveTime="14.66" arrivalSpeed="7.88" arrivalSpeedBraking="0.00" leaveSpeed="7.88" willPass="1"/>
        </link>
    </timestep>
    <timestep id="15.00">
        <link from=":C_24_0" via="" to="CW_1">
            <approaching id="ego" impatience="0.00" arrivalTime="14.19" arrivalTimeBraking="15.19" leaveTime="14.79" arrivalSpeed="8.29" arrivalSpeedBraking="8.29" leaveSpeed="8.29" willPass="1"/>
        </link>
    </timestep>
    <timestep id="16.00"/>
    <timestep id="17.00"/>
    <timestep id="18.00"/>
    <timestep id="19.00"/>
    <timestep id="20.00"/>
    <timestep id="21.00"/>
    <timestep id="22.00"/>
</link-output>
