<?xml version="1.0" encoding="UTF-8"?>

<!-- generated on 2025-07-14 13:14:21.774802 by randomTrips.py v1_23_1+1056-485580ee618
<configuration>
    <net-file value="net2.net.xml"/>
    <additional-files value="input_additional.add.xml"/>
    <route-file value="out.rou.xml"/>
    <trip-attributes value="type=&quot;truck&quot;"/>
    <edge-permission value="truck"/>
    <end value="10.0"/>
</configuration>
-->

<routes xmlns:xsi="http://www.w3.org/2001/XMLSchema-instance" xsi:noNamespaceSchemaLocation="http://sumo.dlr.de/xsd/routes_file.xsd">
    <trip id="0" depart="0.00" from="beg2left" to="end" type="truck"/>
    <trip id="1" depart="1.00" from="left" to="left2end" type="truck"/>
    <trip id="2" depart="2.00" from="beg2left" to="left" type="truck"/>
    <trip id="3" depart="3.00" from="beg" to="beg2left" type="truck"/>
    <trip id="4" depart="4.00" from="left" to="left" type="truck"/>
    <trip id="5" depart="5.00" from="beg2left" to="left" type="truck"/>
    <trip id="6" depart="6.00" from="left2end" to="left2end" type="truck"/>
    <trip id="7" depart="7.00" from="beg2left" to="beg2left" type="truck"/>
    <trip id="8" depart="8.00" from="left2end" to="end" type="truck"/>
    <trip id="9" depart="9.00" from="beg" to="beg2left" type="truck"/>
</routes>
