<?xml version="1.0" encoding="UTF-8"?>

<!-- generated on Wed May  6 14:37:56 2020 by Eclipse SUMO Version v1_6_0+0116-fc17f5a0a5
This data file and the accompanying materials
are made available under the terms of the Eclipse Public License v2.0
which accompanies this distribution, and is available at
http://www.eclipse.org/legal/epl-v20.html
SPDX-License-Identifier: EPL-2.0
<configuration xmlns:xsi="http://www.w3.org/2001/XMLSchema-instance" xsi:noNamespaceSchemaLocation="http://sumo.dlr.de/xsd/sumoConfiguration.xsd">

    <input>
        <net-file value="net.net.xml"/>
        <route-files value="input_routes.rou.xml"/>
        <additional-files value="input_additional.add.xml"/>
    </input>

    <output>
        <write-license value="true"/>
        <tripinfo-output value="tripinfos.xml"/>
        <railsignal-block-output value="railsignal_blocks.xml"/>
    </output>

    <time>
        <end value="200"/>
    </time>

    <processing>
        <default.speeddev value="0"/>
        <pedestrian.model value="nonInteracting"/>
    </processing>

    <report>
        <xml-validation value="never"/>
        <duration-log.disable value="true"/>
        <no-step-log value="true"/>
    </report>

    <mesoscopic>
        <mesosim value="true"/>
    </mesoscopic>

</configuration>
-->

<railsignal-block-output>
    <railSignal id="gneJ2">
        <link linkIndex="0" from="gneE1_0" to="gneE6_0">
            <driveWay edges="gneE6 gneE7">
                <forward lanes="gneE6_0 gneE7_0"/>
                <bidi lanes=""/>
                <flank lanes=""/>
                <conflictLinks signals=""/>
            </driveWay>
        </link>
        <link linkIndex="1" from="gneE1_0" to="gneE2_0">
            <driveWay edges="gneE2 gneE3">
                <forward lanes="gneE2_0 gneE3_0"/>
                <bidi lanes=""/>
                <flank lanes=""/>
                <conflictLinks signals=""/>
            </driveWay>
        </link>
        <link linkIndex="2" from="gneE1_0" to="gneE4_0">
            <driveWay edges="gneE4 gneE5">
                <forward lanes="gneE4_0 gneE5_0"/>
                <bidi lanes=""/>
                <flank lanes=""/>
                <conflictLinks signals=""/>
            </driveWay>
        </link>
    </railSignal>
</railsignal-block-output>
