<?xml version="1.0" encoding="UTF-8"?>

<!-- generated on 2026-01-08T15:57:08.697730+01:00 by Eclipse SUMO duarouter v1_25_0+0861-e5fbfd32f73
This data file and the accompanying materials
are made available under the terms of the Eclipse Public License v2.0
which accompanies this distribution, and is available at
http://www.eclipse.org/legal/epl-v20.html
This file may also be made available under the following Secondary
Licenses when the conditions for such availability set forth in the Eclipse
Public License 2.0 are satisfied: GNU General Public License, version 2
or later which is available at
https://www.gnu.org/licenses/old-licenses/gpl-2.0-standalone.html
SPDX-License-Identifier: EPL-2.0 OR GPL-2.0-or-later
<duarouterConfiguration xmlns:xsi="http://www.w3.org/2001/XMLSchema-instance" xsi:noNamespaceSchemaLocation="http://sumo.dlr.de/xsd/duarouterConfiguration.xsd">

    <input>
        <net-file value="input_net.net.xml"/>
        <route-files value="input_trips.trips.xml"/>
    </input>

    <output>
        <output-file value="routes.rou.xml"/>
        <write-license value="true"/>
    </output>

    <report>
        <xml-validation value="never"/>
        <no-step-log value="true"/>
    </report>

</duarouterConfiguration>
-->

<routes xmlns:xsi="http://www.w3.org/2001/XMLSchema-instance" xsi:noNamespaceSchemaLocation="http://sumo.dlr.de/xsd/routes_file.xsd">
    <vehicle id="0.0" depart="0.00">
        <route edges="beg beg2left left left2end end rend"/>
        <stop lane="left_0" arrival="9.00" until="10.00"/>
    </vehicle>
    <vehicle id="0.1" depart="0.10">
        <route edges="beg beg2left left left2end end rend"/>
        <stop lane="left_0" arrival="9.10" until="10.10"/>
    </vehicle>
    <vehicle id="0.2" depart="0.20">
        <route edges="beg beg2left left left2end end rend"/>
        <stop lane="left_0" arrival="9.20" until="10.20"/>
    </vehicle>
    <vehicle id="0.3" depart="0.30">
        <route edges="beg beg2left left left2end end rend"/>
        <stop lane="left_0" arrival="9.30" until="10.30"/>
    </vehicle>
    <vehicle id="0.4" depart="0.40">
        <route edges="beg beg2left left left2end end rend"/>
        <stop lane="left_0" arrival="9.40" until="10.40"/>
    </vehicle>
    <vehicle id="0.5" depart="0.50">
        <route edges="beg beg2left left left2end end rend"/>
        <stop lane="left_0" arrival="9.50" until="10.50"/>
    </vehicle>
    <vehicle id="0.6" depart="0.60">
        <route edges="beg beg2left left left2end end rend"/>
        <stop lane="left_0" arrival="9.60" until="10.60"/>
    </vehicle>
    <vehicle id="0.7" depart="0.70">
        <route edges="beg beg2left left left2end end rend"/>
        <stop lane="left_0" arrival="9.70" until="10.70"/>
    </vehicle>
    <vehicle id="0.8" depart="0.80">
        <route edges="beg beg2left left left2end end rend"/>
        <stop lane="left_0" arrival="9.80" until="10.80"/>
    </vehicle>
    <vehicle id="0.9" depart="0.90">
        <route edges="beg beg2left left left2end end rend"/>
        <stop lane="left_0" arrival="9.90" until="10.90"/>
    </vehicle>
</routes>
