<?xml version="1.0" encoding="UTF-8"?>

<!-- generated on 2022-05-13 10:04:20 by Eclipse SUMO netedit Version v1_13_0+0229-ef115a2
<configuration xmlns:xsi="http://www.w3.org/2001/XMLSchema-instance" xsi:noNamespaceSchemaLocation="http://sumo.dlr.de/xsd/netconvertConfiguration.xsd">

    <input>
        <sumo-net-file value="rev2.net.net.xml"/>
    </input>

    <output>
        <output-file value="rev2.net.net.xml"/>
        <output.street-names value="true"/>
    </output>

    <processing>
        <geometry.min-radius.fix.railways value="false"/>
        <geometry.max-grade.fix value="false"/>
        <offset.disable-normalization value="true"/>
        <lefthand value="false"/>
    </processing>

    <junctions>
        <no-internal-links value="true"/>
        <no-turnarounds value="true"/>
        <junctions.corner-detail value="5"/>
        <junctions.limit-turn-speed value="5.5"/>
        <rectangular-lane-cut value="false"/>
    </junctions>

    <pedestrian>
        <walkingareas value="false"/>
    </pedestrian>

    <report>
        <aggregate-warnings value="5"/>
    </report>

</configuration>
-->

<edges version="1.9" xmlns:xsi="http://www.w3.org/2001/XMLSchema-instance" xsi:noNamespaceSchemaLocation="http://sumo.dlr.de/xsd/edges_file.xsd">
    <edge id="-1342" from="1222" to="1178" name="Quai des Etats-Unis" priority="-1" type="48" numLanes="1" speed="8.33" shape="22531.44,10531.23 22531.39,10530.40 22531.37,10530.25 22531.35,10530.10 22531.33,10529.95 22531.31,10529.80 22531.28,10529.65 22531.26,10529.50 22531.23,10529.35 22531.20,10529.20 22531.17,10529.05 22531.14,10528.90 22531.11,10528.75 22531.08,10528.60 22531.04,10528.46 22531.00,10528.31 22530.97,10528.16 22530.93,10528.02 22530.89,10527.87 22530.85,10527.72 22530.80,10527.58 22530.76,10527.43 22530.71,10527.29 22530.67,10527.14 22530.62,10527.00 22530.57,10526.86 22530.52,10526.71 22530.47,10526.57 22530.42,10526.43 22530.36,10526.29 22530.31,10526.14 22530.25,10526.00 22530.19,10525.86 22530.13,10525.72 22530.07,10525.58 22530.01,10525.45 22529.94,10525.31 22529.88,10525.17 22529.81,10525.03 22529.75,10524.90 22529.68,10524.76 22529.61,10524.63 22529.54,10524.49 22529.47,10524.36 22529.39,10524.23 22529.32,10524.09 22529.25,10523.96 22529.17,10523.83 22529.09,10523.70 22529.01,10523.57 22528.93,10523.44 22528.85,10523.31 22528.77,10523.19 22528.69,10523.06 22528.60,10522.93 22528.51,10522.81 22528.43,10522.69 22528.34,10522.56 22528.25,10522.44 22528.16,10522.32 22528.07,10522.20 22527.98,10522.08 22527.88,10521.96 22527.79,10521.84 22527.69,10521.72 22527.60,10521.60 22527.50,10521.49 22527.40,10521.37 22527.30,10521.26 22527.20,10521.14 22527.10,10521.03 22526.99,10520.92 22526.89,10520.81 22526.79,10520.70 22526.68,10520.59 22526.57,10520.49 22526.47,10520.38 22526.36,10520.27 22526.25,10520.17 22526.14,10520.06 22526.02,10519.96 22525.91,10519.86 22525.80,10519.76 22525.68,10519.66 22525.57,10519.56 22525.45,10519.46 22525.34,10519.37 22525.22,10519.27 22525.10,10519.18 22524.98,10519.09 22524.86,10518.99 22524.74,10518.90 22524.62,10518.81 22524.49,10518.72 22524.37,10518.64 22524.25,10518.55 22524.12,10518.46 22524.00,10518.38 22523.87,10518.30 22523.74,10518.21 22523.61,10518.13 22523.48,10518.05 22523.36,10517.98 22523.22,10517.90 22523.09,10517.82 22522.96,10517.75 22444.40,10505.92"/>
    <edge id="-5033" from="2524" to="1222" name="Avenue John Fitzgerald Kennedy" priority="-1" type="28" numLanes="1" speed="13.89" shape="22610.43,10546.87 22601.93,10545.56 22540.75,10536.66 22540.21,10536.55 22539.67,10536.42 22539.14,10536.28 22538.62,10536.11 22538.10,10535.93 22537.59,10535.73 22537.09,10535.51 22536.59,10535.27 22536.10,10535.02 22535.62,10534.75 22535.15,10534.47 22534.69,10534.17 22534.24,10533.85 22533.81,10533.52 22533.38,10533.17 22532.96,10532.81 22532.56,10532.43 22532.17,10532.04 22531.80,10531.64 22531.44,10531.23"/>
    <edge id="1342" from="1178" to="1222" name="Quai des Etats-Unis" priority="-1" type="48" numLanes="1" speed="8.33" shape="22444.40,10505.92 22522.96,10517.75 22523.09,10517.82 22523.22,10517.90 22523.36,10517.98 22523.48,10518.05 22523.61,10518.13 22523.74,10518.21 22523.87,10518.30 22524.00,10518.38 22524.12,10518.46 22524.25,10518.55 22524.37,10518.64 22524.49,10518.72 22524.62,10518.81 22524.74,10518.90 22524.86,10518.99 22524.98,10519.09 22525.10,10519.18 22525.22,10519.27 22525.34,10519.37 22525.45,10519.46 22525.57,10519.56 22525.68,10519.66 22525.80,10519.76 22525.91,10519.86 22526.02,10519.96 22526.14,10520.06 22526.25,10520.17 22526.36,10520.27 22526.47,10520.38 22526.57,10520.49 22526.68,10520.59 22526.79,10520.70 22526.89,10520.81 22526.99,10520.92 22527.10,10521.03 22527.20,10521.14 22527.30,10521.26 22527.40,10521.37 22527.50,10521.49 22527.60,10521.60 22527.69,10521.72 22527.79,10521.84 22527.88,10521.96 22527.98,10522.08 22528.07,10522.20 22528.16,10522.32 22528.25,10522.44 22528.34,10522.56 22528.43,10522.69 22528.51,10522.81 22528.60,10522.93 22528.69,10523.06 22528.77,10523.19 22528.85,10523.31 22528.93,10523.44 22529.01,10523.57 22529.09,10523.70 22529.17,10523.83 22529.25,10523.96 22529.32,10524.09 22529.39,10524.23 22529.47,10524.36 22529.54,10524.49 22529.61,10524.63 22529.68,10524.76 22529.75,10524.90 22529.81,10525.03 22529.88,10525.17 22529.94,10525.31 22530.01,10525.45 22530.07,10525.58 22530.13,10525.72 22530.19,10525.86 22530.25,10526.00 22530.31,10526.14 22530.36,10526.29 22530.42,10526.43 22530.47,10526.57 22530.52,10526.71 22530.57,10526.86 22530.62,10527.00 22530.67,10527.14 22530.71,10527.29 22530.76,10527.43 22530.80,10527.58 22530.85,10527.72 22530.89,10527.87 22530.93,10528.02 22530.97,10528.16 22531.00,10528.31 22531.04,10528.46 22531.08,10528.60 22531.11,10528.75 22531.14,10528.90 22531.17,10529.05 22531.20,10529.20 22531.23,10529.35 22531.26,10529.50 22531.28,10529.65 22531.31,10529.80 22531.33,10529.95 22531.35,10530.10 22531.37,10530.25 22531.39,10530.40 22531.44,10531.23"/>
    <edge id="1500" from="1133" to="1222" name="Avenue John Fitzgerald Kennedy" priority="-1" type="28" numLanes="1" speed="13.89" shape="22362.00,10509.14 22368.74,10511.08 22375.54,10512.78 22382.40,10514.23 22389.31,10515.44 22396.25,10516.41 22428.66,10519.35 22518.66,10530.77 22531.44,10531.23"/>
    <edge id="5033" from="1222" to="2524" name="Avenue John Fitzgerald Kennedy" priority="-1" type="28" numLanes="1" speed="13.89" shape="22531.44,10531.23 22531.80,10531.64 22532.17,10532.04 22532.56,10532.43 22532.96,10532.81 22533.38,10533.17 22533.81,10533.52 22534.24,10533.85 22534.69,10534.17 22535.15,10534.47 22535.62,10534.75 22536.10,10535.02 22536.59,10535.27 22537.09,10535.51 22537.59,10535.73 22538.10,10535.93 22538.62,10536.11 22539.14,10536.28 22539.67,10536.42 22540.21,10536.55 22540.75,10536.66 22601.93,10545.56 22610.43,10546.87"/>
    <edge id="998" from="1222" to="1360" name="Quai des Etats-Unis" priority="-1" type="69" numLanes="1" speed="4.17" shape="22531.44,10531.23 22531.57,10531.13 22531.62,10531.04 22531.71,10530.86 22531.76,10530.77 22531.81,10530.68 22531.86,10530.59 22531.91,10530.50 22531.96,10530.41 22532.01,10530.32 22532.06,10530.23 22532.11,10530.14 22532.22,10529.97 22532.27,10529.88 22532.32,10529.79 22532.38,10529.70 22532.48,10529.53 22532.54,10529.44 22532.64,10529.27 22532.70,10529.18 22532.81,10529.01 22532.86,10528.92 22532.97,10528.75 22533.09,10528.58 22533.20,10528.41 22533.32,10528.24 22533.43,10528.08 22533.49,10527.99 22533.61,10527.83 22533.67,10527.74 22533.73,10527.66 22533.79,10527.58 22533.85,10527.49 22533.91,10527.41 22533.97,10527.33 22534.09,10527.17 22534.15,10527.08 22534.28,10526.92 22534.34,10526.84 22534.40,10526.76 22534.53,10526.60 22534.59,10526.52 22534.65,10526.44 22534.72,10526.36 22534.85,10526.20 22534.91,10526.12 22534.98,10526.04 22535.11,10525.89 22535.24,10525.73 22535.31,10525.65 22535.44,10525.50 22535.51,10525.42 22535.57,10525.34 22535.71,10525.19 22535.84,10525.04 22535.91,10524.96 22536.05,10524.81 22536.19,10524.66 22536.33,10524.52 22536.40,10524.44 22536.54,10524.29 22536.68,10524.15 22536.76,10524.08 22536.83,10524.00 22536.97,10523.86 22537.05,10523.79 22537.19,10523.64 22537.34,10523.50 22537.49,10523.36 22537.63,10523.22 22537.71,10523.15 22537.86,10523.01 22538.01,10522.88 22538.09,10522.81 22538.24,10522.67 22538.32,10522.60 22538.47,10522.47 22538.55,10522.40 22538.70,10522.27 22538.78,10522.20 22538.86,10522.14 22538.94,10522.07 22539.09,10521.94 22539.25,10521.81 22539.33,10521.75 22539.49,10521.62 22539.65,10521.50 22539.73,10521.43 22539.81,10521.37 22539.97,10521.25 22540.14,10521.12 22540.22,10521.06 22540.38,10520.94 22540.55,10520.82 22540.63,10520.76 22540.76,10520.67 22540.84,10520.61 22540.93,10520.55 22541.02,10520.49 22541.11,10520.43 22541.20,10520.38 22541.29,10520.32 22541.39,10520.27 22541.48,10520.22 22541.57,10520.16 22541.67,10520.11 22541.76,10520.06 22541.86,10520.02 22541.95,10519.97 22542.05,10519.92 22542.15,10519.88 22542.34,10519.79 22542.44,10519.75 22542.54,10519.71 22542.64,10519.68 22542.74,10519.64 22542.84,10519.60 22542.94,10519.57 22543.04,10519.54 22543.14,10519.50 22543.25,10519.47 22543.35,10519.44 22543.45,10519.42 22543.56,10519.39 22543.66,10519.37 22543.76,10519.34 22543.87,10519.32 22543.97,10519.30 22544.08,10519.28 22544.18,10519.26 22544.29,10519.24 22544.39,10519.23 22544.50,10519.21 22544.61,10519.20 22544.71,10519.19 22544.82,10519.18 22544.92,10519.17 22545.03,10519.16 22545.14,10519.16 22545.24,10519.15 22545.35,10519.15 22545.46,10519.14 22545.56,10519.14 22545.67,10519.14 22545.78,10519.15 22545.88,10519.15 22545.99,10519.15 22546.10,10519.16 22765.89,10550.10 22778.64,10551.89"/>


</edges>
