<routes>
    <vType id="DEFAULT_VEHTYPE" sigma="0"/>

    <route id="r0" edges="a"/>

    <vehicle id="ego" route="r0" departPos="0" depart="0">
        <stop parkingArea="pa_0" duration="10" parking="true"/>
    </vehicle>

</routes>
