<?xml version="1.0" encoding="UTF-8"?>

<!-- generated on Wed May 30 09:50:03 2018 by Eclipse SUMO Version b2daee9
This data file and the accompanying materials
are made available under the terms of the Eclipse Public License v2.0
which accompanies this distribution, and is available at
http://www.eclipse.org/legal/epl-v20.html
SPDX-License-Identifier: EPL-2.0
<configuration xmlns:xsi="http://www.w3.org/2001/XMLSchema-instance" xsi:noNamespaceSchemaLocation="https://sumo.dlr.de/xsd/sumoConfiguration.xsd">

    <input>
        <net-file value="net.net.xml"/>
        <route-files value="input_routes.rou.xml"/>
        <additional-files value="input_additional.add.xml"/>
    </input>

    <output>
        <write-license value="true"/>
    </output>

    <time>
        <begin value="0"/>
        <end value="220"/>
    </time>

    <processing>
        <lateral-resolution value="0.8"/>
    </processing>

    <report>
        <xml-validation value="never"/>
        <duration-log.disable value="true"/>
        <no-step-log value="true"/>
    </report>

</configuration>
-->

<vehicle-type-probes xmlns:xsi="http://www.w3.org/2001/XMLSchema-instance" xsi:noNamespaceSchemaLocation="https://sumo.dlr.de/xsd/vtypeprobe_file.xsd">
    <timestep time="0.00" id="test1" vType="DEFAULT_VEHTYPE"/>
    <timestep time="10.00" id="test1" vType="DEFAULT_VEHTYPE"/>
    <timestep time="20.00" id="test1" vType="DEFAULT_VEHTYPE"/>
    <timestep time="30.00" id="test1" vType="DEFAULT_VEHTYPE"/>
    <timestep time="40.00" id="test1" vType="DEFAULT_VEHTYPE"/>
    <timestep time="50.00" id="test1" vType="DEFAULT_VEHTYPE"/>
    <timestep time="60.00" id="test1" vType="DEFAULT_VEHTYPE"/>
    <timestep time="70.00" id="test1" vType="DEFAULT_VEHTYPE"/>
    <timestep time="80.00" id="test1" vType="DEFAULT_VEHTYPE"/>
    <timestep time="90.00" id="test1" vType="DEFAULT_VEHTYPE"/>
    <timestep time="100.00" id="test1" vType="DEFAULT_VEHTYPE">
        <vehicle id="always_left.0" lane="1fi_0" pos="5.10" x="5.10" y="498.35" speed="0.00"/>
        <vehicle id="always_right.0" lane="3fi_0" pos="5.10" x="501.65" y="5.10" speed="0.00"/>
        <vehicle id="horizontal.0" lane="2fi_0" pos="5.10" x="994.90" y="501.65" speed="0.00"/>
    </timestep>
    <timestep time="110.00" id="test1" vType="DEFAULT_VEHTYPE">
        <vehicle id="always_left.0" lane="1fi_0" pos="91.38" x="91.38" y="498.35" speed="10.22"/>
        <vehicle id="always_left.1" lane="1fi_0" pos="5.10" x="5.10" y="498.35" speed="0.00"/>
        <vehicle id="always_right.0" lane="3fi_0" pos="82.49" x="501.65" y="82.49" speed="10.90"/>
        <vehicle id="always_right.1" lane="3fi_0" pos="5.10" x="501.65" y="5.10" speed="0.00"/>
        <vehicle id="horizontal.0" lane="2fi_0" pos="86.23" x="913.77" y="501.65" speed="11.07"/>
        <vehicle id="horizontal.1" lane="2fi_0" pos="5.10" x="994.90" y="501.65" speed="0.00"/>
        <vehicle id="vertical.0" lane="3fi_0" pos="58.51" x="501.65" y="58.51" speed="9.87"/>
    </timestep>
    <timestep time="120.00" id="test1" vType="DEFAULT_VEHTYPE">
        <vehicle id="always_left.0" lane="1fi_0" pos="195.92" x="195.92" y="498.35" speed="10.09"/>
        <vehicle id="always_left.1" lane="1fi_0" pos="87.29" x="87.29" y="498.35" speed="10.74"/>
        <vehicle id="always_left.2" lane="1fi_0" pos="5.10" x="5.10" y="498.35" speed="0.00"/>
        <vehicle id="always_right.0" lane="3fi_0" pos="187.94" x="501.65" y="187.94" speed="10.58"/>
        <vehicle id="always_right.1" lane="3fi_0" pos="90.50" x="501.65" y="90.50" speed="10.20"/>
        <vehicle id="always_right.2" lane="3fi_0" pos="5.10" x="501.65" y="5.10" speed="0.00"/>
        <vehicle id="horizontal.0" lane="2fi_0" pos="190.41" x="809.59" y="501.65" speed="10.50"/>
        <vehicle id="horizontal.1" lane="2fi_0" pos="86.85" x="913.15" y="501.65" speed="10.25"/>
        <vehicle id="horizontal.2" lane="2fi_0" pos="5.10" x="994.90" y="501.65" speed="0.00"/>
        <vehicle id="vertical.0" lane="3fi_0" pos="163.42" x="501.65" y="163.42" speed="10.66"/>
        <vehicle id="vertical.1" lane="3fi_0" pos="54.55" x="501.65" y="54.55" speed="10.98"/>
    </timestep>
    <timestep time="130.00" id="test1" vType="DEFAULT_VEHTYPE">
        <vehicle id="always_left.0" lane="1si_2" pos="59.97" x="311.47" y="498.35" speed="13.14"/>
        <vehicle id="always_left.1" lane="1fi_0" pos="190.78" x="190.78" y="498.35" speed="10.81"/>
        <vehicle id="always_left.2" lane="1fi_0" pos="82.57" x="82.57" y="498.35" speed="10.87"/>
        <vehicle id="always_left.3" lane="1fi_0" pos="5.10" x="5.10" y="498.35" speed="0.00"/>
        <vehicle id="always_right.0" lane="3si_0" pos="48.06" x="508.25" y="299.56" speed="13.20"/>
        <vehicle id="always_right.1" lane="3fi_0" pos="194.71" x="501.65" y="194.71" speed="10.81"/>
        <vehicle id="always_right.2" lane="3fi_0" pos="82.17" x="501.65" y="82.17" speed="9.89"/>
        <vehicle id="always_right.3" lane="3fi_0" pos="5.10" x="501.65" y="5.10" speed="0.00"/>
        <vehicle id="horizontal.0" lane="2si_1" pos="53.43" x="695.07" y="504.95" speed="13.87"/>
        <vehicle id="horizontal.1" lane="2fi_0" pos="191.34" x="808.66" y="501.65" speed="10.82"/>
        <vehicle id="horizontal.2" lane="2fi_0" pos="90.43" x="909.57" y="501.65" speed="9.92"/>
        <vehicle id="horizontal.3" lane="2fi_0" pos="5.10" x="994.90" y="501.65" speed="0.00"/>
        <vehicle id="vertical.0" lane="3si_1" pos="22.52" x="504.95" y="274.02" speed="13.75"/>
        <vehicle id="vertical.1" lane="3fi_0" pos="158.15" x="501.65" y="158.15" speed="10.40"/>
        <vehicle id="vertical.2" lane="3fi_0" pos="51.86" x="501.65" y="51.86" speed="9.93"/>
    </timestep>
    <timestep time="140.00" id="test1" vType="DEFAULT_VEHTYPE">
        <vehicle id="always_left.0" lane="1si_2" pos="193.47" x="444.97" y="498.35" speed="13.05"/>
        <vehicle id="always_left.1" lane="1si_2" pos="50.85" x="302.35" y="498.35" speed="13.01"/>
        <vehicle id="always_left.2" lane="1fi_0" pos="186.57" x="186.57" y="498.35" speed="10.55"/>
        <vehicle id="always_left.3" lane="1fi_0" pos="90.98" x="90.98" y="498.35" speed="10.44"/>
        <vehicle id="always_left.4" lane="1fi_0" pos="5.10" x="5.10" y="498.35" speed="0.00"/>
        <vehicle id="always_right.0" lane="3si_0" pos="179.95" x="508.25" y="431.45" speed="13.71"/>
        <vehicle id="always_right.1" lane="3si_0" pos="57.08" x="508.25" y="308.58" speed="13.82"/>
        <vehicle id="always_right.2" lane="3fi_0" pos="187.23" x="501.65" y="187.23" speed="10.13"/>
        <vehicle id="always_right.3" lane="3fi_0" pos="87.34" x="501.65" y="87.34" speed="10.84"/>
        <vehicle id="always_right.4" lane="3fi_0" pos="5.10" x="501.65" y="5.10" speed="0.00"/>
        <vehicle id="horizontal.0" lane="2si_1" pos="184.55" x="563.95" y="504.95" speed="12.63"/>
        <vehicle id="horizontal.1" lane="2si_1" pos="53.27" x="695.23" y="504.95" speed="12.65"/>
        <vehicle id="horizontal.2" lane="2fi_0" pos="196.51" x="803.49" y="501.65" speed="10.05"/>
        <vehicle id="horizontal.3" lane="2fi_0" pos="82.05" x="917.95" y="501.65" speed="10.56"/>
        <vehicle id="horizontal.4" lane="2fi_0" pos="5.10" x="994.90" y="501.65" speed="0.00"/>
        <vehicle id="vertical.0" lane="3si_1" pos="153.29" x="504.95" y="404.79" speed="13.84"/>
        <vehicle id="vertical.1" lane="3si_1" pos="8.83" x="504.95" y="260.33" speed="11.44"/>
        <vehicle id="vertical.2" lane="3fi_0" pos="155.70" x="501.65" y="155.70" speed="10.42"/>
        <vehicle id="vertical.3" lane="3fi_0" pos="56.06" x="501.65" y="56.06" speed="10.09"/>
    </timestep>
    <timestep time="150.00" id="test1" vType="DEFAULT_VEHTYPE">
        <vehicle id="always_left.0" lane="4o_0" pos="9.76" x="501.65" y="521.11" speed="8.24"/>
        <vehicle id="always_left.1" lane="1si_2" pos="183.72" x="435.22" y="498.35" speed="13.34"/>
        <vehicle id="always_left.2" lane="1si_2" pos="47.38" x="298.88" y="498.35" speed="12.86"/>
        <vehicle id="always_left.3" lane="1fi_0" pos="196.01" x="196.01" y="498.35" speed="10.20"/>
        <vehicle id="always_left.4" lane="1fi_0" pos="82.96" x="82.96" y="498.35" speed="9.88"/>
        <vehicle id="always_left.5" lane="1fi_0" pos="5.10" x="5.10" y="498.35" speed="0.00"/>
        <vehicle id="always_right.0" lane="3si_0" pos="236.14" x="508.25" y="487.64" speed="0.01"/>
        <vehicle id="always_right.1" lane="3si_0" pos="188.21" x="508.25" y="439.71" speed="12.76"/>
        <vehicle id="always_right.2" lane="3si_0" pos="50.00" x="508.25" y="301.50" speed="12.89"/>
        <vehicle id="always_right.3" lane="3fi_0" pos="190.46" x="501.65" y="190.46" speed="10.75"/>
        <vehicle id="always_right.4" lane="3fi_0" pos="86.42" x="501.65" y="86.42" speed="10.96"/>
        <vehicle id="always_right.5" lane="3fi_0" pos="5.10" x="501.65" y="5.10" speed="0.00"/>
        <vehicle id="horizontal.0" lane="1o_0" pos="40.65" x="448.00" y="501.65" speed="10.43"/>
        <vehicle id="horizontal.1" lane="2si_1" pos="183.68" x="564.82" y="504.95" speed="13.50"/>
        <vehicle id="horizontal.2" lane="2si_1" pos="60.27" x="688.23" y="504.95" speed="13.51"/>
        <vehicle id="horizontal.3" lane="2fi_0" pos="184.87" x="815.13" y="501.65" speed="9.93"/>
        <vehicle id="horizontal.4" lane="2fi_0" pos="83.83" x="916.17" y="501.65" speed="9.82"/>
        <vehicle id="horizontal.5" lane="2fi_0" pos="5.10" x="994.90" y="501.65" speed="0.00"/>
        <vehicle id="vertical.0" lane="3si_1" pos="236.15" x="504.95" y="487.65" speed="0.01"/>
        <vehicle id="vertical.1" lane="3si_1" pos="142.54" x="504.95" y="394.04" speed="12.92"/>
        <vehicle id="vertical.2" lane="3si_1" pos="8.09" x="504.95" y="259.59" speed="12.01"/>
        <vehicle id="vertical.3" lane="3fi_0" pos="161.24" x="501.65" y="161.24" speed="10.79"/>
        <vehicle id="vertical.4" lane="3fi_0" pos="55.51" x="501.65" y="55.51" speed="9.91"/>
    </timestep>
    <timestep time="160.00" id="test1" vType="DEFAULT_VEHTYPE">
        <vehicle id="always_left.0" lane="4o_0" pos="113.46" x="501.65" y="624.81" speed="11.10"/>
        <vehicle id="always_left.1" lane="4o_0" pos="13.67" x="501.65" y="525.02" speed="10.17"/>
        <vehicle id="always_left.2" lane="1si_2" pos="178.74" x="430.24" y="498.35" speed="13.72"/>
        <vehicle id="always_left.3" lane="1si_2" pos="61.63" x="313.13" y="498.35" speed="12.81"/>
        <vehicle id="always_left.4" lane="1fi_0" pos="187.23" x="187.23" y="498.35" speed="11.10"/>
        <vehicle id="always_left.5" lane="1fi_0" pos="87.49" x="87.49" y="498.35" speed="10.87"/>
        <vehicle id="always_left.6" lane="1fi_0" pos="5.10" x="5.10" y="498.35" speed="0.00"/>
        <vehicle id="always_right.0" lane="3si_0" pos="236.15" x="508.25" y="487.65" speed="0.00"/>
        <vehicle id="always_right.1" lane="3si_0" pos="228.65" x="508.25" y="480.15" speed="0.00"/>
        <vehicle id="always_right.2" lane="3si_0" pos="180.91" x="508.25" y="432.41" speed="13.27"/>
        <vehicle id="always_right.3" lane="3si_0" pos="51.28" x="508.25" y="302.78" speed="13.38"/>
        <vehicle id="always_right.4" lane="3fi_0" pos="192.86" x="501.65" y="192.86" speed="10.81"/>
        <vehicle id="always_right.5" lane="3fi_0" pos="82.32" x="501.65" y="82.32" speed="9.85"/>
        <vehicle id="always_right.6" lane="3fi_0" pos="5.10" x="501.65" y="5.10" speed="0.00"/>
        <vehicle id="horizontal.0" lane="1o_0" pos="144.07" x="344.58" y="501.65" speed="10.53"/>
        <vehicle id="horizontal.1" lane="1o_0" pos="40.34" x="448.31" y="501.65" speed="10.68"/>
        <vehicle id="horizontal.2" lane="2si_1" pos="191.45" x="557.05" y="504.95" speed="13.12"/>
        <vehicle id="horizontal.3" lane="2si_1" pos="45.66" x="702.84" y="504.95" speed="12.92"/>
        <vehicle id="horizontal.4" lane="2fi_0" pos="187.99" x="812.01" y="501.65" speed="10.33"/>
        <vehicle id="horizontal.5" lane="2fi_0" pos="86.41" x="913.59" y="501.65" speed="10.10"/>
        <vehicle id="horizontal.6" lane="2fi_0" pos="5.10" x="994.90" y="501.65" speed="0.00"/>
        <vehicle id="vertical.0" lane="3si_1" pos="236.15" x="504.95" y="487.65" speed="0.00"/>
        <vehicle id="vertical.1" lane="3si_1" pos="228.60" x="504.95" y="480.10" speed="0.14"/>
        <vehicle id="vertical.2" lane="3si_1" pos="139.43" x="504.95" y="390.93" speed="13.00"/>
        <vehicle id="vertical.3" lane="3si_1" pos="15.77" x="504.95" y="267.27" speed="12.23"/>
        <vehicle id="vertical.4" lane="3fi_0" pos="159.65" x="501.65" y="159.65" speed="11.00"/>
        <vehicle id="vertical.5" lane="3fi_0" pos="57.47" x="501.65" y="57.47" speed="10.72"/>
    </timestep>
    <timestep time="170.00" id="test1" vType="DEFAULT_VEHTYPE">
        <vehicle id="always_left.0" lane="4o_0" pos="218.28" x="501.65" y="729.63" speed="11.07"/>
        <vehicle id="always_left.1" lane="4o_0" pos="118.64" x="501.65" y="629.99" speed="10.48"/>
        <vehicle id="always_left.2" lane="4o_0" pos="33.98" x="501.65" y="545.33" speed="11.06"/>
        <vehicle id="always_left.3" lane="1si_2" pos="193.34" x="444.84" y="498.35" speed="12.77"/>
        <vehicle id="always_left.4" lane="1si_2" pos="48.26" x="299.76" y="498.35" speed="13.48"/>
        <vehicle id="always_left.5" lane="1fi_0" pos="193.37" x="193.37" y="498.35" speed="9.98"/>
        <vehicle id="always_left.6" lane="1fi_0" pos="89.81" x="89.81" y="498.35" speed="9.91"/>
        <vehicle id="always_left.7" lane="1fi_0" pos="5.10" x="5.10" y="498.35" speed="0.00"/>
        <vehicle id="always_right.0" lane="3si_0" pos="236.15" x="508.25" y="487.65" speed="0.00"/>
        <vehicle id="always_right.1" lane="3si_0" pos="228.65" x="508.25" y="480.15" speed="0.00"/>
        <vehicle id="always_right.2" lane="3si_0" pos="221.15" x="508.25" y="472.65" speed="0.00"/>
        <vehicle id="always_right.3" lane="3si_0" pos="183.33" x="508.25" y="434.83" speed="13.06"/>
        <vehicle id="always_right.4" lane="3si_0" pos="54.63" x="508.25" y="306.13" speed="13.47"/>
        <vehicle id="always_right.5" lane="3fi_0" pos="188.60" x="501.65" y="188.60" speed="10.44"/>
        <vehicle id="always_right.6" lane="3fi_0" pos="85.85" x="501.65" y="85.85" speed="10.11"/>
        <vehicle id="always_right.7" lane="3fi_0" pos="5.10" x="501.65" y="5.10" speed="0.00"/>
        <vehicle id="horizontal.0" lane="1o_0" pos="248.48" x="240.17" y="501.65" speed="10.61"/>
        <vehicle id="horizontal.1" lane="1o_0" pos="143.95" x="344.70" y="501.65" speed="10.58"/>
        <vehicle id="horizontal.2" lane="1o_0" pos="46.47" x="442.18" y="501.65" speed="10.61"/>
        <vehicle id="horizontal.3" lane="2si_1" pos="176.90" x="571.60" y="504.95" speed="13.79"/>
        <vehicle id="horizontal.4" lane="2si_1" pos="50.28" x="698.22" y="504.95" speed="13.39"/>
        <vehicle id="horizontal.5" lane="2fi_0" pos="190.16" x="809.84" y="501.65" speed="9.81"/>
        <vehicle id="horizontal.6" lane="2fi_0" pos="86.93" x="913.07" y="501.65" speed="9.81"/>
        <vehicle id="horizontal.7" lane="2fi_0" pos="5.10" x="994.90" y="501.65" speed="0.00"/>
        <vehicle id="vertical.0" lane="3si_1" pos="236.15" x="504.95" y="487.65" speed="0.00"/>
        <vehicle id="vertical.1" lane="3si_1" pos="228.65" x="504.95" y="480.15" speed="0.00"/>
        <vehicle id="vertical.2" lane="3si_1" pos="221.12" x="504.95" y="472.62" speed="0.03"/>
        <vehicle id="vertical.3" lane="3si_1" pos="147.10" x="504.95" y="398.60" speed="12.65"/>
        <vehicle id="vertical.4" lane="3si_1" pos="10.99" x="504.95" y="262.49" speed="11.76"/>
        <vehicle id="vertical.5" lane="3fi_0" pos="162.28" x="501.65" y="162.28" speed="10.46"/>
        <vehicle id="vertical.6" lane="3fi_0" pos="54.01" x="501.65" y="54.01" speed="10.57"/>
    </timestep>
    <timestep time="180.00" id="test1" vType="DEFAULT_VEHTYPE">
        <vehicle id="always_left.0" lane="4o_0" pos="321.33" x="501.65" y="832.68" speed="9.92"/>
        <vehicle id="always_left.1" lane="4o_0" pos="224.75" x="501.65" y="736.10" speed="10.81"/>
        <vehicle id="always_left.2" lane="4o_0" pos="139.50" x="501.65" y="650.85" speed="10.30"/>
        <vehicle id="always_left.3" lane="4o_0" pos="51.06" x="501.65" y="562.41" speed="11.03"/>
        <vehicle id="always_left.4" lane="1si_2" pos="182.32" x="433.82" y="498.35" speed="13.73"/>
        <vehicle id="always_left.5" lane="1si_2" pos="54.72" x="306.22" y="498.35" speed="12.76"/>
        <vehicle id="always_left.6" lane="1fi_0" pos="193.67" x="193.67" y="498.35" speed="10.85"/>
        <vehicle id="always_left.7" lane="1fi_0" pos="80.37" x="80.37" y="498.35" speed="10.81"/>
        <vehicle id="always_left.8" lane="1fi_0" pos="5.10" x="5.10" y="498.35" speed="0.00"/>
        <vehicle id="always_right.0" lane=":0_8_0" pos="1.23" x="508.31" y="489.88" speed="2.23"/>
        <vehicle id="always_right.1" lane="3si_0" pos="228.65" x="508.25" y="480.15" speed="0.00"/>
        <vehicle id="always_right.2" lane="3si_0" pos="221.15" x="508.25" y="472.65" speed="0.00"/>
        <vehicle id="always_right.3" lane="3si_0" pos="213.65" x="508.25" y="465.15" speed="0.00"/>
        <vehicle id="always_right.4" lane="3si_0" pos="188.98" x="508.25" y="440.48" speed="13.49"/>
        <vehicle id="always_right.5" lane="3si_0" pos="48.07" x="508.25" y="299.57" speed="12.92"/>
        <vehicle id="always_right.6" lane="3fi_0" pos="191.04" x="501.65" y="191.04" speed="10.75"/>
        <vehicle id="always_right.7" lane="3fi_0" pos="87.21" x="501.65" y="87.21" speed="10.58"/>
        <vehicle id="always_right.8" lane="3fi_0" pos="5.10" x="501.65" y="5.10" speed="0.00"/>
        <vehicle id="horizontal.0" lane="1o_0" pos="352.17" x="136.48" y="501.65" speed="10.55"/>
        <vehicle id="horizontal.1" lane="1o_0" pos="250.34" x="238.31" y="501.65" speed="11.03"/>
        <vehicle id="horizontal.2" lane="1o_0" pos="151.35" x="337.30" y="501.65" speed="10.28"/>
        <vehicle id="horizontal.3" lane="2si_1" pos="236.15" x="512.35" y="504.95" speed="0.00"/>
        <vehicle id="horizontal.4" lane="2si_1" pos="182.90" x="565.60" y="504.95" speed="13.59"/>
        <vehicle id="horizontal.5" lane="2si_1" pos="50.81" x="697.69" y="504.95" speed="13.87"/>
        <vehicle id="horizontal.6" lane="2fi_0" pos="192.99" x="807.01" y="501.65" speed="10.56"/>
        <vehicle id="horizontal.7" lane="2fi_0" pos="85.37" x="914.63" y="501.65" speed="10.34"/>
        <vehicle id="horizontal.8" lane="2fi_0" pos="5.10" x="994.90" y="501.65" speed="0.00"/>
        <vehicle id="vertical.0" lane=":0_9_0" pos="1.01" x="504.88" y="489.66" speed="2.01"/>
        <vehicle id="vertical.1" lane="3si_1" pos="228.65" x="504.95" y="480.15" speed="0.00"/>
        <vehicle id="vertical.2" lane="3si_1" pos="221.15" x="504.95" y="472.65" speed="0.00"/>
        <vehicle id="vertical.3" lane="3si_1" pos="213.64" x="504.95" y="465.14" speed="0.02"/>
        <vehicle id="vertical.4" lane="3si_1" pos="145.12" x="504.95" y="396.62" speed="13.85"/>
        <vehicle id="vertical.5" lane="3si_1" pos="16.84" x="504.95" y="268.34" speed="12.79"/>
        <vehicle id="vertical.6" lane="3fi_0" pos="159.67" x="501.65" y="159.67" speed="10.29"/>
        <vehicle id="vertical.7" lane="3fi_0" pos="53.14" x="501.65" y="53.14" speed="10.79"/>
    </timestep>
    <timestep time="190.00" id="test1" vType="DEFAULT_VEHTYPE">
        <vehicle id="always_left.0" lane="4o_0" pos="426.16" x="501.65" y="937.51" speed="9.83"/>
        <vehicle id="always_left.1" lane="4o_0" pos="330.28" x="501.65" y="841.63" speed="10.93"/>
        <vehicle id="always_left.2" lane="4o_0" pos="241.80" x="501.65" y="753.15" speed="9.95"/>
        <vehicle id="always_left.3" lane="4o_0" pos="157.52" x="501.65" y="668.87" speed="10.77"/>
        <vehicle id="always_left.4" lane="1si_2" pos="236.15" x="487.65" y="498.35" speed="0.00"/>
        <vehicle id="always_left.5" lane="1si_2" pos="187.54" x="439.04" y="498.35" speed="13.45"/>
        <vehicle id="always_left.6" lane="1si_2" pos="54.09" x="305.59" y="498.35" speed="13.01"/>
        <vehicle id="always_left.7" lane="1fi_0" pos="184.69" x="184.69" y="498.35" speed="10.91"/>
        <vehicle id="always_left.8" lane="1fi_0" pos="88.38" x="88.38" y="498.35" speed="10.74"/>
        <vehicle id="always_left.9" lane="1fi_0" pos="5.10" x="5.10" y="498.35" speed="0.00"/>
        <vehicle id="always_right.0" lane="2o_0" pos="81.18" x="592.53" y="498.35" speed="10.49"/>
        <vehicle id="always_right.1" lane="2o_0" pos="56.39" x="567.74" y="498.35" speed="10.40"/>
        <vehicle id="always_right.2" lane="2o_0" pos="33.73" x="545.08" y="498.35" speed="10.32"/>
        <vehicle id="always_right.3" lane="2o_0" pos="14.52" x="525.87" y="498.35" speed="9.72"/>
        <vehicle id="always_right.4" lane=":0_8_0" pos="2.12" x="508.35" y="490.77" speed="9.62"/>
        <vehicle id="always_right.5" lane="3si_0" pos="180.26" x="508.25" y="431.76" speed="13.80"/>
        <vehicle id="always_right.6" lane="3si_0" pos="54.58" x="508.25" y="306.08" speed="13.42"/>
        <vehicle id="always_right.7" lane="3fi_0" pos="190.47" x="501.65" y="190.47" speed="10.12"/>
        <vehicle id="always_right.8" lane="3fi_0" pos="85.15" x="501.65" y="85.15" speed="10.43"/>
        <vehicle id="always_right.9" lane="3fi_0" pos="5.10" x="501.65" y="5.10" speed="0.00"/>
        <vehicle id="horizontal.0" lane="1o_0" pos="456.76" x="31.89" y="501.65" speed="11.03"/>
        <vehicle id="horizontal.1" lane="1o_0" pos="355.23" x="133.42" y="501.65" speed="10.49"/>
        <vehicle id="horizontal.2" lane="1o_0" pos="257.32" x="231.33" y="501.65" speed="11.10"/>
        <vehicle id="horizontal.3" lane="2si_1" pos="236.15" x="512.35" y="504.95" speed="0.00"/>
        <vehicle id="horizontal.4" lane="2si_1" pos="228.65" x="519.85" y="504.95" speed="0.00"/>
        <vehicle id="horizontal.5" lane="2si_1" pos="184.81" x="563.69" y="504.95" speed="13.15"/>
        <vehicle id="horizontal.6" lane="2si_1" pos="53.05" x="695.45" y="504.95" speed="12.61"/>
        <vehicle id="horizontal.7" lane="2fi_0" pos="190.78" x="809.22" y="501.65" speed="10.22"/>
        <vehicle id="horizontal.8" lane="2fi_0" pos="91.28" x="908.72" y="501.65" speed="10.39"/>
        <vehicle id="horizontal.9" lane="2fi_0" pos="5.10" x="994.90" y="501.65" speed="0.00"/>
        <vehicle id="vertical.0" lane="4o_0" pos="69.51" x="501.65" y="580.86" speed="11.07"/>
        <vehicle id="vertical.1" lane="4o_0" pos="48.15" x="501.65" y="559.50" speed="11.02"/>
        <vehicle id="vertical.2" lane="4o_0" pos="25.65" x="501.65" y="537.00" speed="9.85"/>
        <vehicle id="vertical.3" lane="4o_0" pos="6.77" x="501.65" y="518.12" speed="10.31"/>
        <vehicle id="vertical.4" lane=":0_9_0" pos="9.49" x="504.10" y="498.09" speed="9.91"/>
        <vehicle id="vertical.5" lane="3si_1" pos="148.00" x="504.95" y="399.50" speed="12.85"/>
        <vehicle id="vertical.6" lane="3si_1" pos="13.23" x="504.95" y="264.73" speed="12.80"/>
        <vehicle id="vertical.7" lane="3fi_0" pos="155.60" x="501.65" y="155.60" speed="10.07"/>
        <vehicle id="vertical.8" lane="3fi_0" pos="56.88" x="501.65" y="56.88" speed="10.70"/>
    </timestep>
    <timestep time="200.00" id="test1" vType="DEFAULT_VEHTYPE">
        <vehicle id="always_left.0" lane="4fi_0" pos="39.04" x="498.35" y="960.96" speed="10.22"/>
        <vehicle id="always_left.1" lane="4o_0" pos="436.68" x="501.65" y="948.03" speed="10.68"/>
        <vehicle id="always_left.10" lane="1fi_0" pos="5.10" x="5.10" y="498.35" speed="0.00"/>
        <vehicle id="always_left.2" lane="4o_0" pos="345.03" x="501.65" y="856.38" speed="10.67"/>
        <vehicle id="always_left.3" lane="4o_0" pos="262.51" x="501.65" y="773.86" speed="10.60"/>
        <vehicle id="always_left.4" lane="1si_2" pos="236.15" x="487.65" y="498.35" speed="0.00"/>
        <vehicle id="always_left.5" lane="1si_2" pos="228.65" x="480.15" y="498.35" speed="0.00"/>
        <vehicle id="always_left.6" lane="1si_2" pos="187.84" x="439.34" y="498.35" speed="13.65"/>
        <vehicle id="always_left.7" lane="1si_2" pos="43.98" x="295.48" y="498.35" speed="13.88"/>
        <vehicle id="always_left.8" lane="1fi_0" pos="193.24" x="193.24" y="498.35" speed="10.03"/>
        <vehicle id="always_left.9" lane="1fi_0" pos="87.21" x="87.21" y="498.35" speed="9.88"/>
        <vehicle id="always_right.0" lane="2o_0" pos="184.68" x="696.03" y="498.35" speed="10.06"/>
        <vehicle id="always_right.1" lane="2o_0" pos="160.91" x="672.26" y="498.35" speed="10.68"/>
        <vehicle id="always_right.10" lane="3fi_0" pos="5.10" x="501.65" y="5.10" speed="0.00"/>
        <vehicle id="always_right.2" lane="2o_0" pos="139.04" x="650.39" y="498.35" speed="11.08"/>
        <vehicle id="always_right.3" lane="2o_0" pos="118.19" x="629.54" y="498.35" speed="10.78"/>
        <vehicle id="always_right.4" lane="2o_0" pos="95.42" x="606.77" y="498.35" speed="9.82"/>
        <vehicle id="always_right.5" lane="2o_0" pos="50.08" x="561.43" y="498.35" speed="10.16"/>
        <vehicle id="always_right.6" lane="3si_0" pos="187.21" x="508.25" y="438.71" speed="12.70"/>
        <vehicle id="always_right.7" lane="3si_0" pos="52.37" x="508.25" y="303.87" speed="13.82"/>
        <vehicle id="always_right.8" lane="3fi_0" pos="189.35" x="501.65" y="189.35" speed="10.22"/>
        <vehicle id="always_right.9" lane="3fi_0" pos="85.76" x="501.65" y="85.76" speed="10.41"/>
        <vehicle id="horizontal.0" lane="1fi_0" pos="65.63" x="65.63" y="498.35" speed="10.02"/>
        <vehicle id="horizontal.1" lane="1o_0" pos="460.52" x="28.13" y="501.65" speed="9.92"/>
        <vehicle id="horizontal.10" lane="2fi_0" pos="5.10" x="994.90" y="501.65" speed="0.00"/>
        <vehicle id="horizontal.2" lane="1o_0" pos="363.33" x="125.32" y="501.65" speed="10.45"/>
        <vehicle id="horizontal.3" lane="2si_1" pos="236.15" x="512.35" y="504.95" speed="0.00"/>
        <vehicle id="horizontal.4" lane="2si_1" pos="228.65" x="519.85" y="504.95" speed="0.00"/>
        <vehicle id="horizontal.5" lane="2si_1" pos="221.15" x="527.35" y="504.95" speed="0.00"/>
        <vehicle id="horizontal.6" lane="2si_1" pos="183.00" x="565.50" y="504.95" speed="12.63"/>
        <vehicle id="horizontal.7" lane="2si_1" pos="55.72" x="692.78" y="504.95" speed="13.23"/>
        <vehicle id="horizontal.8" lane="2fi_0" pos="196.72" x="803.28" y="501.65" speed="10.09"/>
        <vehicle id="horizontal.9" lane="2fi_0" pos="88.02" x="911.98" y="501.65" speed="11.07"/>
        <vehicle id="vertical.0" lane="4o_0" pos="173.23" x="501.65" y="684.58" speed="10.37"/>
        <vehicle id="vertical.1" lane="4o_0" pos="151.38" x="501.65" y="662.73" speed="10.53"/>
        <vehicle id="vertical.2" lane="4o_0" pos="130.79" x="501.65" y="642.14" speed="10.95"/>
        <vehicle id="vertical.3" lane="4o_0" pos="107.46" x="501.65" y="618.81" speed="9.91"/>
        <vehicle id="vertical.4" lane="4o_0" pos="87.70" x="501.65" y="599.05" speed="9.85"/>
        <vehicle id="vertical.5" lane="4o_0" pos="12.29" x="501.65" y="523.64" speed="10.50"/>
        <vehicle id="vertical.6" lane="3si_1" pos="143.37" x="504.95" y="394.87" speed="12.71"/>
        <vehicle id="vertical.7" lane="3si_1" pos="8.25" x="504.95" y="259.75" speed="11.56"/>
        <vehicle id="vertical.8" lane="3fi_0" pos="161.42" x="501.65" y="161.42" speed="10.56"/>
        <vehicle id="vertical.9" lane="3fi_0" pos="58.11" x="501.65" y="58.11" speed="9.99"/>
    </timestep>
    <timestep time="210.00" id="test1" vType="DEFAULT_VEHTYPE">
        <vehicle id="always_left.0" lane="4fi_0" pos="142.22" x="498.35" y="857.78" speed="10.22"/>
        <vehicle id="always_left.1" lane="4fi_0" pos="49.54" x="498.35" y="950.46" speed="10.45"/>
        <vehicle id="always_left.10" lane="1fi_0" pos="84.05" x="84.05" y="498.35" speed="10.79"/>
        <vehicle id="always_left.11" lane="1fi_0" pos="5.10" x="5.10" y="498.35" speed="0.00"/>
        <vehicle id="always_left.2" lane="4o_0" pos="448.49" x="501.65" y="959.84" speed="10.66"/>
        <vehicle id="always_left.3" lane="4o_0" pos="368.64" x="501.65" y="879.99" speed="10.84"/>
        <vehicle id="always_left.4" lane="1si_2" pos="236.15" x="487.65" y="498.35" speed="0.00"/>
        <vehicle id="always_left.5" lane="1si_2" pos="228.65" x="480.15" y="498.35" speed="0.00"/>
        <vehicle id="always_left.6" lane="1si_2" pos="221.15" x="472.65" y="498.35" speed="0.00"/>
        <vehicle id="always_left.7" lane="1si_2" pos="176.34" x="427.84" y="498.35" speed="13.54"/>
        <vehicle id="always_left.8" lane="1si_2" pos="54.85" x="306.35" y="498.35" speed="13.27"/>
        <vehicle id="always_left.9" lane="1fi_0" pos="193.39" x="193.39" y="498.35" speed="10.97"/>
        <vehicle id="always_right.0" lane="2o_0" pos="290.64" x="801.99" y="498.35" speed="10.21"/>
        <vehicle id="always_right.1" lane="2o_0" pos="264.15" x="775.50" y="498.35" speed="9.96"/>
        <vehicle id="always_right.10" lane="3fi_0" pos="86.76" x="501.65" y="86.76" speed="10.19"/>
        <vehicle id="always_right.11" lane="3fi_0" pos="5.10" x="501.65" y="5.10" speed="0.00"/>
        <vehicle id="always_right.2" lane="2o_0" pos="243.06" x="754.41" y="498.35" speed="10.15"/>
        <vehicle id="always_right.3" lane="2o_0" pos="222.48" x="733.83" y="498.35" speed="9.53"/>
        <vehicle id="always_right.4" lane="2o_0" pos="201.00" x="712.35" y="498.35" speed="10.07"/>
        <vehicle id="always_right.5" lane="2o_0" pos="154.17" x="665.52" y="498.35" speed="9.95"/>
        <vehicle id="always_right.6" lane="2o_0" pos="52.84" x="564.19" y="498.35" speed="10.07"/>
        <vehicle id="always_right.7" lane="3si_0" pos="184.12" x="508.25" y="435.62" speed="13.69"/>
        <vehicle id="always_right.8" lane="3si_0" pos="51.30" x="508.25" y="302.80" speed="13.39"/>
        <vehicle id="always_right.9" lane="3fi_0" pos="191.38" x="501.65" y="191.38" speed="10.48"/>