<?xml version="1.0" encoding="UTF-8"?>

<!-- generated on 2023-02-14 12:56:17 by Eclipse SUMO netedit Version v1_16_0+0177-c72433bc6bd
-->

<additional xmlns:xsi="http://www.w3.org/2001/XMLSchema-instance" xsi:noNamespaceSchemaLocation="http://sumo.dlr.de/xsd/additional_file.xsd">
    <!-- StoppingPlaces -->
    <trainStop id="ts_0" lane="center1_1" startPos="29.00" endPos="34.00"/>
    <trainStop id="ts_1" lane="center1_1" startPos="12.00" endPos="17.00"/>
    <trainStop id="ts_2" lane="center1_1" startPos="22.50" endPos="27.50"/>
</additional>
