<?xml version="1.0" encoding="UTF-8"?>

<!-- generated on 2024-06-11 22:14:38 by Eclipse SUMO jtrrouter Version v1_20_0+0443-233e48e5c88
-->

<jtrrouterConfiguration xmlns:xsi="http://www.w3.org/2001/XMLSchema-instance" xsi:noNamespaceSchemaLocation="http://sumo.dlr.de/xsd/jtrrouterConfiguration.xsd">

    <input>
        <net-file value="input_net.net.xml"/>
        <route-files value="input_flows.flows.xml"/>
    </input>

    <output>
        <output-file value="routes.rou.xml"/>
    </output>

    <processing>
        <turn-defaults value="50,50,0,0"/>
    </processing>

    <report>
        <ignore-errors value="true"/>
    </report>

</jtrrouterConfiguration>
