<?xml version="1.0"?>

<!-- generated on 12/30/08 00:02:15 by SUMO duarouter Version dev-SVN-r6504
<configuration>

   <input>
      <net-file>input_net.net.xml</net-file>
      <sumo-input>input_routes.rou.xml</sumo-input>
   </input>

   <output>
      <output-file>routes.rou.xml</output-file>
      <exit-times>true</exit-times>
   </output>

</configuration>
-->

<route-alternatives>
   <vehicle id="0" depart="0">
      <routeDistribution last="0">
         <route cost="124.88" probability="1.00" edges="beg middle end rend" exitTimes="17.93 89.19 107.13 124.88 "/>
      </routeDistribution>
   </vehicle>
   <vehicle id="1" depart="0">
      <routeDistribution last="0">
         <route cost="124.88" probability="1.00" edges="beg middle end rend" exitTimes="17.93 89.19 107.13 124.88 "/>
      </routeDistribution>
   </vehicle>
   <vehicle id="2" depart="0">
      <routeDistribution last="0">
         <route cost="124.88" probability="1.00" edges="beg middle end rend" exitTimes="17.93 89.19 107.13 124.88 "/>
      </routeDistribution>
   </vehicle>
   <vehicle id="3" depart="0">
      <routeDistribution last="0">
         <route cost="124.88" probability="1.00" edges="beg middle end rend" exitTimes="17.93 89.19 107.13 124.88 "/>
      </routeDistribution>
   </vehicle>
   <vehicle id="4" depart="0">
      <routeDistribution last="0">
         <route cost="124.88" probability="1.00" edges="beg middle end rend" exitTimes="17.93 89.19 107.13 124.88 "/>
      </routeDistribution>
   </vehicle>
   <vehicle id="5" depart="0">
      <routeDistribution last="0">
         <route cost="124.88" probability="1.00" edges="beg middle end rend" exitTimes="17.93 89.19 107.13 124.88 "/>
      </routeDistribution>
   </vehicle>
   <vehicle id="6" depart="0">
      <routeDistribution last="0">
         <route cost="124.88" probability="1.00" edges="beg middle end rend" exitTimes="17.93 89.19 107.13 124.88 "/>
      </routeDistribution>
   </vehicle>
   <vehicle id="7" depart="0">
      <routeDistribution last="0">
         <route cost="124.88" probability="1.00" edges="beg middle end rend" exitTimes="17.93 89.19 107.13 124.88 "/>
      </routeDistribution>
   </vehicle>
   <vehicle id="8" depart="0">
      <routeDistribution last="0">
         <route cost="124.88" probability="1.00" edges="beg middle end rend" exitTimes="17.93 89.19 107.13 124.88 "/>
      </routeDistribution>
   </vehicle>
   <vehicle id="9" depart="0">
      <routeDistribution last="0">
         <route cost="124.88" probability="1.00" edges="beg middle end rend" exitTimes="17.93 89.19 107.13 124.88 "/>
      </routeDistribution>
   </vehicle>
</route-alternatives>
