<?xml version="1.0" encoding="UTF-8"?>

<!-- generated on 2024-07-17 15:17:31 by Eclipse SUMO netedit Version v1_20_0+1264-f5cae912633
This data file and the accompanying materials
are made available under the terms of the Eclipse Public License v2.0
which accompanies this distribution, and is available at
http://www.eclipse.org/legal/epl-v20.html
This file may also be made available under the following Secondary
Licenses when the conditions for such availability set forth in the Eclipse
Public License 2.0 are satisfied: GNU General Public License, version 2
or later which is available at
https://www.gnu.org/licenses/old-licenses/gpl-2.0-standalone.html
SPDX-License-Identifier: EPL-2.0 OR GPL-2.0-or-later
<neteditConfiguration xmlns:xsi="http://www.w3.org/2001/XMLSchema-instance" xsi:noNamespaceSchemaLocation="http://sumo.dlr.de/xsd/neteditConfiguration.xsd">

    <input>
        <additional-files value="C:\Users\alva_pa\.texttest\tmp\netedit.gui.17Jul151640.7848\netedit.gui\network\junctions\contextual_menu\split\split_junction\additionals.add.xml"/>
        <route-files value="C:\Users\alva_pa\.texttest\tmp\netedit.gui.17Jul151640.7848\netedit.gui\network\junctions\contextual_menu\split\split_junction\routes.rou.xml"/>
        <data-files value="C:\Users\alva_pa\.texttest\tmp\netedit.gui.17Jul151640.7848\netedit.gui\network\junctions\contextual_menu\split\split_junction\datas.dat.xml"/>
        <sumo-net-file value="C:\Users\alva_pa\.texttest\tmp\netedit.gui.17Jul151640.7848\netedit.gui\network\junctions\contextual_menu\split\split_junction\net.net.xml"/>
    </input>

    <output>
        <write-license value="true"/>
        <output-file value="C:\Users\alva_pa\.texttest\tmp\netedit.gui.17Jul151640.7848\netedit.gui\network\junctions\contextual_menu\split\split_junction\net.net.xml"/>
    </output>

    <processing>
        <geometry.min-radius.fix.railways value="false"/>
        <geometry.max-grade.fix value="false"/>
        <offset.disable-normalization value="true"/>
        <lefthand value="0"/>
    </processing>

    <junctions>
        <no-internal-links value="false"/>
        <no-turnarounds value="true"/>
        <junctions.corner-detail value="5"/>
        <junctions.limit-turn-speed value="5.50"/>
        <rectangular-lane-cut value="0"/>
    </junctions>

    <pedestrian>
        <walkingareas value="1"/>
    </pedestrian>

    <netedit>
        <ignore-supermode-question value="true"/>
    </netedit>

    <visualisation>
        <gui-settings-file value="C:\Users\alva_pa\.texttest\tmp\netedit.gui.17Jul151640.7848\netedit.gui\network\junctions\contextual_menu\split\split_junction\gui-settings.xml"/>
        <window-size value="1280, 720"/>
        <window-pos value="50,50"/>
        <gui-testing value="true"/>
        <gui-testing.setting-output value="C:\Users\alva_pa\.texttest\tmp\netedit.gui.17Jul151640.7848\netedit.gui\network\junctions\contextual_menu\split\split_junction\guisettingsoutput.xml"/>
    </visualisation>

    <report>
        <no-warnings value="true"/>
        <error-log value="C:\Users\alva_pa\.texttest\tmp\netedit.gui.17Jul151640.7848\netedit.gui\network\junctions\contextual_menu\split\split_junction\log.txt"/>
    </report>

</neteditConfiguration>
-->

<net version="1.20" junctionCornerDetail="5" walkingareas="true" limitTurnSpeed="5.50" xmlns:xsi="http://www.w3.org/2001/XMLSchema-instance" xsi:noNamespaceSchemaLocation="http://sumo.dlr.de/xsd/net_file.xsd">

    <location netOffset="0.00,0.00" convBoundary="-60.00,-30.00,60.00,30.00" origBoundary="-10000000000.000000,-10000000000.000000,10000000000.000000,10000000000.000000" projParameter="+proj=merc +a=6378137 +b=6378137 +lat_ts=0.0 +lon_0=0.0 +x_0=0.0 +y_0=0 +k=1.0 +units=m +nadgrids=@null +wktext +no_defs"/>

    <edge id=":J1_0" function="internal">
        <lane id=":J1_0_0" index="0" disallow="pedestrian" speed="5.37" length="5.81" shape="-6.60,10.20 -6.82,8.62 -7.50,7.50 -8.62,6.82 -10.20,6.60"/>
    </edge>
    <edge id=":J1_w0" function="walkingarea">
        <lane id=":J1_w0_0" index="0" allow="pedestrian" speed="2.78" length="1.41" width="2.00" shape="-10.20,8.20 -10.20,10.20 -8.20,10.20 -8.26,9.59 -8.42,9.09 -8.70,8.70 -9.09,8.42 -9.59,8.26"/>
    </edge>
    <edge id=":J4_0" function="internal">
        <lane id=":J4_0_0" index="0" disallow="pedestrian" speed="5.37" length="5.81" shape="10.20,6.60 8.62,6.82 7.50,7.50 6.82,8.62 6.60,10.20"/>
    </edge>
    <edge id=":J4_w0" function="walkingarea">
        <lane id=":J4_w0_0" index="0" allow="pedestrian" speed="2.78" length="1.41" width="2.00" shape="8.20,10.20 10.20,10.20 10.20,8.20 9.59,8.26 9.09,8.42 8.70,8.70 8.42,9.09 8.26,9.59"/>
    </edge>
    <edge id=":J6_0" function="internal">
        <lane id=":J6_0_0" index="0" disallow="pedestrian" speed="5.37" length="5.81" shape="6.60,-10.20 6.82,-8.62 7.50,-7.50 8.62,-6.82 10.20,-6.60"/>
    </edge>
    <edge id=":J6_w0" function="walkingarea">
        <lane id=":J6_w0_0" index="0" allow="pedestrian" speed="2.78" length="1.41" width="2.00" shape="10.20,-8.20 10.20,-10.20 8.20,-10.20 8.26,-9.59 8.42,-9.09 8.70,-8.70 9.09,-8.42 9.59,-8.26"/>
    </edge>
    <edge id=":J7_0" function="internal">
        <lane id=":J7_0_0" index="0" disallow="pedestrian" speed="5.37" length="5.81" shape="-10.20,-6.60 -8.62,-6.82 -7.50,-7.50 -6.82,-8.62 -6.60,-10.20"/>
    </edge>
    <edge id=":J7_w0" function="walkingarea">
        <lane id=":J7_w0_0" index="0" allow="pedestrian" speed="2.78" length="1.41" width="2.00" shape="-8.20,-10.20 -10.20,-10.20 -10.20,-8.20 -9.59,-8.26 -9.09,-8.42 -8.70,-8.70 -8.42,-9.09 -8.26,-9.59"/>
    </edge>
    <edge id=":JunctionExtern0_0" function="internal">
        <lane id=":JunctionExtern0_0_0" index="0" disallow="pedestrian" speed="3.53" length="4.38" width="3.00" shape="-60.00,1.50 -61.12,0.75 -61.50,0.00 -61.12,-0.75 -60.00,-1.50"/>
    </edge>
    <edge id=":JunctionExtern1_0" function="internal">
        <lane id=":JunctionExtern1_0_0" index="0" disallow="pedestrian" speed="3.53" length="4.38" width="3.00" shape="60.00,-1.50 61.12,-0.75 61.50,0.00 61.12,0.75 60.00,1.50"/>
    </edge>

    <edge id="E14" from="J0" to="J1" priority="-1">
        <lane id="E14_0" index="0" allow="pedestrian" speed="13.89" length="14.80" width="2.00" shape="-9.20,25.00 -9.20,10.20"/>
        <lane id="E14_1" index="1" disallow="pedestrian" speed="13.89" length="14.80" shape="-6.60,25.00 -6.60,10.20"/>
    </edge>
    <edge id="E15" from="J1" to="J2" priority="-1">
        <lane id="E15_0" index="0" allow="pedestrian" speed="13.89" length="14.80" width="2.00" shape="-10.20,9.20 -25.00,9.20"/>
        <lane id="E15_1" index="1" disallow="pedestrian" speed="13.89" length="14.80" shape="-10.20,6.60 -25.00,6.60"/>
    </edge>
    <edge id="E16" from="J5" to="J7" priority="-1">
        <lane id="E16_0" index="0" allow="pedestrian" speed="13.89" length="14.80" width="2.00" shape="-25.00,-9.20 -10.20,-9.20"/>
        <lane id="E16_1" index="1" disallow="pedestrian" speed="13.89" length="14.80" shape="-25.00,-6.60 -10.20,-6.60"/>
    </edge>
    <edge id="E17" from="J7" to="J3" priority="-1">
        <lane id="E17_0" index="0" allow="pedestrian" speed="13.89" length="14.80" width="2.00" shape="-9.20,-10.20 -9.20,-25.00"/>
        <lane id="E17_1" index="1" disallow="pedestrian" speed="13.89" length="14.80" shape="-6.60,-10.20 -6.60,-25.00"/>
    </edge>
    <edge id="E18" from="J11" to="J6" priority="-1">
        <lane id="E18_0" index="0" allow="pedestrian" speed="13.89" length="14.80" width="2.00" shape="9.20,-25.00 9.20,-10.20"/>
        <lane id="E18_1" index="1" disallow="pedestrian" speed="13.89" length="14.80" shape="6.60,-25.00 6.60,-10.20"/>
    </edge>
    <edge id="E19" from="J6" to="J9" priority="-1">
        <lane id="E19_0" index="0" allow="pedestrian" speed="13.89" length="14.80" width="2.00" shape="10.20,-9.20 25.00,-9.20"/>
        <lane id="E19_1" index="1" disallow="pedestrian" speed="13.89" length="14.80" shape="10.20,-6.60 25.00,-6.60"/>
    </edge>
    <edge id="E20" from="J14" to="J4" priority="-1">
        <lane id="E20_0" index="0" allow="pedestrian" speed="13.89" length="14.80" width="2.00" shape="25.00,9.20 10.20,9.20"/>
        <lane id="E20_1" index="1" disallow="pedestrian" speed="13.89" length="14.80" shape="25.00,6.60 10.20,6.60"/>
    </edge>
    <edge id="E21" from="J4" to="J13" priority="-1">
        <lane id="E21_0" index="0" allow="pedestrian" speed="13.89" length="14.80" width="2.00" shape="9.20,10.20 9.20,25.00"/>
        <lane id="E21_1" index="1" disallow="pedestrian" speed="13.89" length="14.80" shape="6.60,10.20 6.60,25.00"/>
    </edge>
    <edge id="EdgeExternBot" from="JunctionExtern0" to="JunctionExtern1" priority="-1" length="175.00" shape="-60.00,0.00 -45.00,0.00 -45.00,-25.00 -40.00,-30.00 40.00,-30.00 45.00,-25.00 45.00,0.00 60.00,0.00">
        <lane id="EdgeExternBot_0" index="0" disallow="pedestrian" speed="13.89" length="175.00" width="3.00" shape="-60.00,-1.50 -46.50,-1.50 -46.50,-25.62 -40.62,-31.50 40.62,-31.50 46.50,-25.62 46.50,-1.50 60.00,-1.50"/>
    </edge>
    <edge id="EdgeExternTop" from="JunctionExtern1" to="JunctionExtern0" priority="-1" length="175.00" shape="60.00,0.00 45.00,0.00 45.00,25.00 40.00,30.00 -40.00,30.00 -45.00,25.00 -45.00,0.00 -60.00,0.00">
        <lane id="EdgeExternTop_0" index="0" disallow="pedestrian" speed="13.89" length="175.00" width="3.00" shape="60.00,1.50 46.50,1.50 46.50,25.62 40.62,31.50 -40.62,31.50 -46.50,25.62 -46.50,1.50 -60.00,1.50"/>
    </edge>

    <junction id="J0" type="dead_end" x="-5.00" y="25.00" incLanes="" intLanes="" shape="-5.00,25.00 -10.20,25.00"/>
    <junction id="J1" type="priority" x="-5.00" y="5.00" incLanes="E14_0 E14_1" intLanes=":J1_0_0" shape="-10.20,10.20 -5.00,10.20 -5.58,7.31 -6.30,6.30 -7.31,5.58 -8.61,5.14 -10.20,5.00">
        <request index="0" response="0" foes="0" cont="0"/>
    </junction>
    <junction id="J11" type="dead_end" x="5.00" y="-25.00" incLanes="" intLanes="" shape="5.00,-25.00 10.20,-25.00"/>
    <junction id="J13" type="dead_end" x="5.00" y="25.00" incLanes="E21_0 E21_1" intLanes="" shape="10.20,25.00 5.00,25.00"/>
    <junction id="J14" type="dead_end" x="25.00" y="5.00" incLanes="" intLanes="" shape="25.00,5.00 25.00,10.20"/>
    <junction id="J2" type="dead_end" x="-25.00" y="5.00" incLanes="E15_0 E15_1" intLanes="" shape="-25.00,10.20 -25.00,5.00"/>
    <junction id="J3" type="dead_end" x="-5.00" y="-25.00" incLanes="E17_0 E17_1" intLanes="" shape="-10.20,-25.00 -5.00,-25.00"/>
    <junction id="J4" type="priority" x="5.00" y="5.00" incLanes="E20_0 E20_1" intLanes=":J4_0_0" shape="5.00,10.20 10.20,10.20 10.20,5.00 7.31,5.58 6.30,6.30 5.58,7.31 5.14,8.61">
        <request index="0" response="0" foes="0" cont="0"/>
    </junction>
    <junction id="J5" type="dead_end" x="-25.00" y="-5.00" incLanes="" intLanes="" shape="-25.00,-5.00 -25.00,-10.20"/>
    <junction id="J6" type="priority" x="5.00" y="-5.00" incLanes="E18_0 E18_1" intLanes=":J6_0_0" shape="10.20,-5.00 10.20,-10.20 5.00,-10.20 5.58,-7.31 6.30,-6.30 7.31,-5.58 8.61,-5.14">
        <request index="0" response="0" foes="0" cont="0"/>
    </junction>
    <junction id="J7" type="priority" x="-5.00" y="-5.00" incLanes="E16_0 E16_1" intLanes=":J7_0_0" shape="-5.00,-10.20 -10.20,-10.20 -10.20,-5.00 -7.31,-5.58 -6.30,-6.30 -5.58,-7.31 -5.14,-8.61">
        <request index="0" response="0" foes="0" cont="0"/>
    </junction>
    <junction id="J9" type="dead_end" x="25.00" y="-5.00" incLanes="E19_0 E19_1" intLanes="" shape="25.00,-10.20 25.00,-5.00"/>
    <junction id="JunctionExtern0" type="priority" x="-60.00" y="0.00" incLanes="EdgeExternTop_0" intLanes=":JunctionExtern0_0_0" shape="-60.00,0.00 -60.00,3.00 -60.00,0.00">
        <request index="0" response="0" foes="0" cont="0"/>
    </junction>
    <junction id="JunctionExtern1" type="priority" x="60.00" y="0.00" incLanes="EdgeExternBot_0" intLanes=":JunctionExtern1_0_0" shape="60.00,0.00 60.00,-3.00 60.00,0.00">
        <request index="0" response="0" foes="0" cont="0"/>
    </junction>

    <connection from="E14" to="E15" fromLane="1" toLane="1" via=":J1_0_0" dir="r" state="M"/>
    <connection from="E16" to="E17" fromLane="1" toLane="1" via=":J7_0_0" dir="r" state="M"/>
    <connection from="E18" to="E19" fromLane="1" toLane="1" via=":J6_0_0" dir="r" state="M"/>
    <connection from="E20" to="E21" fromLane="1" toLane="1" via=":J4_0_0" dir="r" state="M"/>
    <connection from="EdgeExternBot" to="EdgeExternTop" fromLane="0" toLane="0" via=":JunctionExtern1_0_0" dir="t" state="M"/>
    <connection from="EdgeExternTop" to="EdgeExternBot" fromLane="0" toLane="0" via=":JunctionExtern0_0_0" dir="t" state="M"/>

    <connection from=":J1_0" to="E15" fromLane="0" toLane="1" dir="r" state="M"/>
    <connection from=":J4_0" to="E21" fromLane="0" toLane="1" dir="r" state="M"/>
    <connection from=":J6_0" to="E19" fromLane="0" toLane="1" dir="r" state="M"/>
    <connection from=":J7_0" to="E17" fromLane="0" toLane="1" dir="r" state="M"/>
    <connection from=":JunctionExtern0_0" to="EdgeExternBot" fromLane="0" toLane="0" dir="t" state="M"/>
    <connection from=":JunctionExtern1_0" to="EdgeExternTop" fromLane="0" toLane="0" dir="t" state="M"/>

    <connection from=":J1_w0" to="E15" fromLane="0" toLane="0" dir="s" state="M"/>
    <connection from="E14" to=":J1_w0" fromLane="0" toLane="0" dir="s" state="M"/>
    <connection from=":J4_w0" to="E21" fromLane="0" toLane="0" dir="s" state="M"/>
    <connection from="E20" to=":J4_w0" fromLane="0" toLane="0" dir="s" state="M"/>
    <connection from=":J6_w0" to="E19" fromLane="0" toLane="0" dir="s" state="M"/>
    <connection from="E18" to=":J6_w0" fromLane="0" toLane="0" dir="s" state="M"/>
    <connection from=":J7_w0" to="E17" fromLane="0" toLane="0" dir="s" state="M"/>
    <connection from="E16" to=":J7_w0" fromLane="0" toLane="0" dir="s" state="M"/>
</net>
