<additional>

   <detector id="3/1to2/1" lane="3/1to2/1_0" pos="200" freq="1" style="CSV" file="detector.xml"/>

</additional>