<?xml version="1.0" encoding="UTF-8"?>

<!-- generated on Fri Nov 11 12:09:18 2011 by SUMO netconvert Version dev-SVN-r11490
<?xml version="1.0" encoding="iso-8859-1"?>

<configuration xmlns:xsi="http://www.w3.org/2001/XMLSchema-instance" xsi:noNamespaceSchemaLocation="http://sumo-sim.org/xsd/netconvertConfiguration.xsd">

    <input>
        <sumo-net-file value="input_net.net.xml"/>
    </input>

    <output>
        <output-file value="net.net.xml"/>
        <plain-output-prefix value="plain"/>
    </output>

    <processing>
        <no-turnarounds value="true"/>
        <offset.disable-normalization value="true"/>
    </processing>

</configuration>
-->

<connections version="0.13" xmlns:xsi="http://www.w3.org/2001/XMLSchema-instance" xsi:noNamespaceSchemaLocation="http://sumo-sim.org/xsd/connections_file.xsd">
    <connection from="edge_with_shape" to="reverse_edge" fromLane="0" toLane="0"/>
    <connection from="edge_with_shape" to="reverse_edge" fromLane="1" toLane="1"/>
    <connection from="edge_with_shape" to="reverse_edge" fromLane="2" toLane="2"/>

    <connection from="reverse_edge" to="edge_with_shape" fromLane="0" toLane="0"/>
    <connection from="reverse_edge" to="edge_with_shape" fromLane="1" toLane="1"/>
    <connection from="reverse_edge" to="edge_with_shape" fromLane="2" toLane="2"/>

</connections>
