<routes>
   <route id="1" edges="beg end"/>
</routes>
