<?xml version="1.0"?>

<!-- generated on 11/05/09 14:44:02 by SUMO sumo Version dev-SVN-r7945
<configuration>

    <input>
        <net-file value="net.net.xml"/>
        <additional-files value="input_routes.rou.xml,input_additional.add.xml"/>
    </input>

    <time>
        <begin value="0"/>
        <end value="150"/>
    </time>

    <report>
        <no-duration-log value="true"/>
        <no-step-log value="true"/>
    </report>

</configuration>
-->

<netstats>
   <interval begin="0" end="60" id="dump_60">
      <edge id="1si" sampledSeconds="44.00" traveltime="76.08" density="3.09" occupancy="0.52" waitingTime="38.18" speed="3.12" departed="1" arrived="0" entered="0" left="1" laneChangedFrom="2" laneChangedTo="2"/>
      <edge id="4o" sampledSeconds="1.00" traveltime="610.81" density="0.03" occupancy="0.02" waitingTime="0.00" speed="0.80" departed="0" arrived="1" entered="1" left="0" laneChangedFrom="0" laneChangedTo="0"/>
   </interval>
   <interval begin="60" end="120" id="dump_60">
   </interval>
   <interval begin="120" end="150" id="dump_60">
   </interval>
</netstats>
