<?xml version="1.0" encoding="UTF-8"?>

<!-- generated on Fri Oct 25 08:21:03 2013 by SUMO netconvert Version dev-SVN-r14913
<?xml version="1.0" encoding="UTF-8"?>

<configuration xmlns:xsi="http://www.w3.org/2001/XMLSchema-instance" xsi:noNamespaceSchemaLocation="http://sumo.dlr.de/xsd/netconvertConfiguration.xsd">

    <input>
        <node-files value="input_nodes.nod.xml"/>
        <edge-files value="input_edges.edg.xml"/>
    </input>

    <output>
        <output-file value="net.net.xml"/>
    </output>

    <tls_building>
        <tls.set value="15030102"/>
    </tls_building>

    <report>
        <verbose value="true"/>
    </report>

</configuration>
-->

<net version="0.13" xmlns:xsi="http://www.w3.org/2001/XMLSchema-instance" xsi:noNamespaceSchemaLocation="http://sumo.dlr.de/xsd/net_file.xsd">

    <location netOffset="-16903.00,-20963.00" convBoundary="0.00,0.00,405.00,265.00" origBoundary="16903.00,20963.00,17308.00,21228.00" projParameter="!"/>

    <edge id=":15030102_0" function="internal">
        <lane id=":15030102_0_0" index="0" speed="13.89" length="9.49" shape="233.74,147.26 241.68,152.45"/>
        <lane id=":15030102_0_1" index="1" speed="13.89" length="9.50" shape="231.93,150.02 239.88,155.22"/>
    </edge>
    <edge id=":15030102_2" function="internal">
        <lane id=":15030102_2_0" index="0" speed="13.20" length="7.86" shape="231.93,150.02 234.16,151.71 235.52,153.30 235.99,154.77 235.59,156.13"/>
    </edge>
    <edge id=":15030102_3" function="internal">
        <lane id=":15030102_3_0" index="0" speed="13.20" length="7.87" shape="232.82,154.35 233.89,153.41 235.43,153.25 237.42,153.85 239.88,155.22"/>
    </edge>
    <edge id=":15030102_4" function="internal">
        <lane id=":15030102_4_0" index="0" speed="12.50" length="4.82" shape="232.82,154.35 234.18,153.75 235.10,153.85 235.57,154.64 235.59,156.13"/>
    </edge>
    <edge id=":15034045_0" function="internal">
        <lane id=":15034045_0_0" index="0" speed="12.50" length="4.82" shape="227.39,168.89 226.02,169.49 225.11,169.39 224.64,168.59 224.61,167.11"/>
    </edge>

    <edge id="-152850000" from="15034045" to="15030102" priority="-1">
        <lane id="-152850000_0" index="0" speed="12.50" length="15.17" shape="224.61,167.11 232.82,154.35"/>
    </edge>
    <edge id="152850000" from="15030102" to="15034045" priority="-1">
        <lane id="152850000_0" index="0" speed="12.50" length="15.17" shape="235.59,156.13 227.39,168.89"/>
    </edge>
    <edge id="153120297" from="15031877" to="15030102" priority="-1">
        <lane id="153120297_0" index="0" speed="13.89" length="276.21" shape="2.71,-4.14 233.74,147.26"/>
        <lane id="153120297_1" index="1" speed="13.89" length="276.21" shape="0.90,-1.38 231.93,150.02"/>
    </edge>
    <edge id="153120299" from="15030102" to="15030099" priority="-1">
        <lane id="153120299_0" index="0" speed="13.89" length="198.28" shape="241.68,152.45 407.71,260.86"/>
        <lane id="153120299_1" index="1" speed="13.89" length="198.28" shape="239.88,155.22 405.90,263.62"/>
    </edge>

    <tlLogic id="15030102" type="static" programID="0" offset="0">
        <phase duration="31" state="GGGrr"/>
        <phase duration="4" state="yyyrr"/>
        <phase duration="31" state="rrrGG"/>
        <phase duration="4" state="rrryy"/>
    </tlLogic>

    <junction id="15030099" type="unregulated" x="405.00" y="265.00" incLanes="153120299_0 153120299_1" intLanes="" shape="408.58,259.52 405.03,264.96"/>
    <junction id="15030102" type="traffic_light" x="235.00" y="154.00" incLanes="153120297_0 153120297_1 -152850000_0" intLanes=":15030102_0_0 :15030102_0_1 :15030102_2_0 :15030102_3_0 :15030102_4_0" shape="239.00,156.55 242.56,151.11 234.62,145.92 231.05,151.35 231.47,153.48 236.94,157.00">
        <request index="0" response="00000" foes="01000" cont="0"/>
        <request index="1" response="00000" foes="01000" cont="0"/>
        <request index="2" response="00000" foes="11000" cont="0"/>
        <request index="3" response="00111" foes="00111" cont="0"/>
        <request index="4" response="00100" foes="00100" cont="0"/>
    </junction>
    <junction id="15031877" type="unregulated" x="0.00" y="0.00" incLanes="" intLanes="" shape="0.03,-0.04 3.59,-5.48"/>
    <junction id="15034045" type="priority" x="226.00" y="168.00" incLanes="152850000_0" intLanes=":15034045_0_0" shape="225.96,167.97 223.27,166.24 228.73,169.76 226.04,168.03">
        <request index="0" response="0" foes="0" cont="0"/>
    </junction>

    <connection from="-152850000" to="153120299" fromLane="0" toLane="1" via=":15030102_3_0" tl="15030102" linkIndex="3" dir="l" state="o"/>
    <connection from="-152850000" to="152850000" fromLane="0" toLane="0" via=":15030102_4_0" tl="15030102" linkIndex="4" dir="t" state="o"/>
    <connection from="152850000" to="-152850000" fromLane="0" toLane="0" via=":15034045_0_0" dir="t" state="M"/>
    <connection from="153120297" to="153120299" fromLane="0" toLane="0" via=":15030102_0_0" tl="15030102" linkIndex="0" dir="s" state="o"/>
    <connection from="153120297" to="153120299" fromLane="1" toLane="1" via=":15030102_0_1" tl="15030102" linkIndex="1" dir="s" state="o"/>
    <connection from="153120297" to="152850000" fromLane="1" toLane="0" via=":15030102_2_0" tl="15030102" linkIndex="2" dir="l" state="o"/>

    <connection from=":15030102_0" to="153120299" fromLane="0" toLane="0" dir="s" state="M"/>
    <connection from=":15030102_0" to="153120299" fromLane="1" toLane="1" dir="s" state="M"/>
    <connection from=":15030102_2" to="152850000" fromLane="0" toLane="0" dir="s" state="M"/>
    <connection from=":15030102_3" to="153120299" fromLane="0" toLane="1" dir="s" state="M"/>
    <connection from=":15030102_4" to="152850000" fromLane="0" toLane="0" dir="s" state="M"/>
    <connection from=":15034045_0" to="-152850000" fromLane="0" toLane="0" dir="s" state="M"/>

</net>
