<?xml version="1.0" encoding="UTF-8"?>

<!-- generated on 2025-10-02T10:04:21.456068+01:00 by Eclipse SUMO sumo v1_24_0+1103-d31c3fa5c03
This data file and the accompanying materials
are made available under the terms of the Eclipse Public License v2.0
which accompanies this distribution, and is available at
http://www.eclipse.org/legal/epl-v20.html
This file may also be made available under the following Secondary
Licenses when the conditions for such availability set forth in the Eclipse
Public License 2.0 are satisfied: GNU General Public License, version 2
or later which is available at
https://www.gnu.org/licenses/old-licenses/gpl-2.0-standalone.html
SPDX-License-Identifier: EPL-2.0 OR GPL-2.0-or-later
<sumoConfiguration xmlns:xsi="http://www.w3.org/2001/XMLSchema-instance" xsi:noNamespaceSchemaLocation="http://sumo.dlr.de/xsd/sumoConfiguration.xsd">

    <input>
        <net-file value="net.net.xml"/>
        <route-files value="input_routes.rou.xml"/>
        <additional-files value="input_additional.add.xml"/>
    </input>

    <output>
        <write-license value="true"/>
        <battery-output value="battery.xml"/>
        <battery-output.precision value="4"/>
        <chargingstations-output value="chargingstations.xml"/>
    </output>

    <time>
        <end value="100"/>
        <step-length value="0.2"/>
    </time>

    <processing>
        <default.speeddev value="0"/>
    </processing>

    <report>
        <xml-validation value="never"/>
        <duration-log.disable value="true"/>
        <no-step-log value="true"/>
    </report>

    <battery>
        <device.battery.probability value="1"/>
    </battery>

</sumoConfiguration>
-->

<chargingstations-export>
    <chargingStation id="CS1" totalEnergyCharged="63.33" chargingSteps="120">
        <vehicle id="veh0" type="ElectricVehicle1" totalEnergyChargedIntoVehicle="18.47" chargingBegin="11.80" chargingEnd="18.60">
            <step time="11.80" chargingStatus="chargingStopped" energyCharged="0.53" partialCharge="0.53" power="10000.00" efficiency="0.95" actualBatteryCapacity="12960.41" maximumBatteryCapacity="35000.00"/>
            <step time="12.00" chargingStatus="chargingStopped" energyCharged="0.53" partialCharge="1.06" power="10000.00" efficiency="0.95" actualBatteryCapacity="12960.94" maximumBatteryCapacity="35000.00"/>
            <step time="12.20" chargingStatus="chargingStopped" energyCharged="0.53" partialCharge="1.58" power="10000.00" efficiency="0.95" actualBatteryCapacity="12961.46" maximumBatteryCapacity="35000.00"/>
            <step time="12.40" chargingStatus="chargingStopped" energyCharged="0.53" partialCharge="2.11" power="10000.00" efficiency="0.95" actualBatteryCapacity="12961.99" maximumBatteryCapacity="35000.00"/>
            <step time="12.60" chargingStatus="chargingStopped" energyCharged="0.53" partialCharge="2.64" power="10000.00" efficiency="0.95" actualBatteryCapacity="12962.51" maximumBatteryCapacity="35000.00"/>
            <step time="12.80" chargingStatus="chargingStopped" energyCharged="0.53" partialCharge="3.17" power="10000.00" efficiency="0.95" actualBatteryCapacity="12963.04" maximumBatteryCapacity="35000.00"/>
            <step time="13.00" chargingStatus="chargingStopped" energyCharged="0.53" partialCharge="3.69" power="10000.00" efficiency="0.95" actualBatteryCapacity="12963.56" maximumBatteryCapacity="35000.00"/>
            <step time="13.20" chargingStatus="chargingStopped" energyCharged="0.53" partialCharge="4.22" power="10000.00" efficiency="0.95" actualBatteryCapacity="12964.09" maximumBatteryCapacity="35000.00"/>
            <step time="13.40" chargingStatus="chargingStopped" energyCharged="0.53" partialCharge="4.75" power="10000.00" efficiency="0.95" actualBatteryCapacity="12964.62" maximumBatteryCapacity="35000.00"/>
            <step time="13.60" chargingStatus="chargingStopped" energyCharged="0.53" partialCharge="5.28" power="10000.00" efficiency="0.95" actualBatteryCapacity="12965.14" maximumBatteryCapacity="35000.00"/>
            <step time="13.80" chargingStatus="chargingStopped" energyCharged="0.53" partialCharge="5.81" power="10000.00" efficiency="0.95" actualBatteryCapacity="12965.67" maximumBatteryCapacity="35000.00"/>
            <step time="14.00" chargingStatus="chargingStopped" energyCharged="0.53" partialCharge="6.33" power="10000.00" efficiency="0.95" actualBatteryCapacity="12966.19" maximumBatteryCapacity="35000.00"/>
            <step time="14.20" chargingStatus="chargingStopped" energyCharged="0.53" partialCharge="6.86" power="10000.00" efficiency="0.95" actualBatteryCapacity="12966.72" maximumBatteryCapacity="35000.00"/>
            <step time="14.40" chargingStatus="chargingStopped" energyCharged="0.53" partialCharge="7.39" power="10000.00" efficiency="0.95" actualBatteryCapacity="12967.24" maximumBatteryCapacity="35000.00"/>
            <step time="14.60" chargingStatus="chargingStopped" energyCharged="0.53" partialCharge="7.92" power="10000.00" efficiency="0.95" actualBatteryCapacity="12967.77" maximumBatteryCapacity="35000.00"/>
            <step time="14.80" chargingStatus="chargingStopped" energyCharged="0.53" partialCharge="8.44" power="10000.00" efficiency="0.95" actualBatteryCapacity="12968.29" maximumBatteryCapacity="35000.00"/>
            <step time="15.00" chargingStatus="chargingStopped" energyCharged="0.53" partialCharge="8.97" power="10000.00" efficiency="0.95" actualBatteryCapacity="12968.82" maximumBatteryCapacity="35000.00"/>
            <step time="15.20" chargingStatus="chargingStopped" energyCharged="0.53" partialCharge="9.50" power="10000.00" efficiency="0.95" actualBatteryCapacity="12969.35" maximumBatteryCapacity="35000.00"/>
            <step time="15.40" chargingStatus="chargingStopped" energyCharged="0.53" partialCharge="10.03" power="10000.00" efficiency="0.95" actualBatteryCapacity="12969.87" maximumBatteryCapacity="35000.00"/>
            <step time="15.60" chargingStatus="chargingStopped" energyCharged="0.53" partialCharge="10.56" power="10000.00" efficiency="0.95" actualBatteryCapacity="12970.40" maximumBatteryCapacity="35000.00"/>
            <step time="15.80" chargingStatus="chargingStopped" energyCharged="0.53" partialCharge="11.08" power="10000.00" efficiency="0.95" actualBatteryCapacity="12970.92" maximumBatteryCapacity="35000.00"/>
            <step time="16.00" chargingStatus="chargingStopped" energyCharged="0.53" partialCharge="11.61" power="10000.00" efficiency="0.95" actualBatteryCapacity="12971.45" maximumBatteryCapacity="35000.00"/>
            <step time="16.20" chargingStatus="chargingStopped" energyCharged="0.53" partialCharge="12.14" power="10000.00" efficiency="0.95" actualBatteryCapacity="12971.97" maximumBatteryCapacity="35000.00"/>
            <step time="16.40" chargingStatus="chargingStopped" energyCharged="0.53" partialCharge="12.67" power="10000.00" efficiency="0.95" actualBatteryCapacity="12972.50" maximumBatteryCapacity="35000.00"/>
            <step time="16.60" chargingStatus="chargingStopped" energyCharged="0.53" partialCharge="13.19" power="10000.00" efficiency="0.95" actualBatteryCapacity="12973.02" maximumBatteryCapacity="35000.00"/>
            <step time="16.80" chargingStatus="chargingStopped" energyCharged="0.53" partialCharge="13.72" power="10000.00" efficiency="0.95" actualBatteryCapacity="12973.55" maximumBatteryCapacity="35000.00"/>
            <step time="17.00" chargingStatus="chargingStopped" energyCharged="0.53" partialCharge="14.25" power="10000.00" efficiency="0.95" actualBatteryCapacity="12974.08" maximumBatteryCapacity="35000.00"/>
            <step time="17.20" chargingStatus="chargingStopped" energyCharged="0.53" partialCharge="14.78" power="10000.00" efficiency="0.95" actualBatteryCapacity="12974.60" maximumBatteryCapacity="35000.00"/>
            <step time="17.40" chargingStatus="chargingStopped" energyCharged="0.53" partialCharge="15.31" power="10000.00" efficiency="0.95" actualBatteryCapacity="12975.13" maximumBatteryCapacity="35000.00"/>
            <step time="17.60" chargingStatus="chargingStopped" energyCharged="0.53" partialCharge="15.83" power="10000.00" efficiency="0.95" actualBatteryCapacity="12975.65" maximumBatteryCapacity="35000.00"/>
            <step time="17.80" chargingStatus="chargingStopped" energyCharged="0.53" partialCharge="16.36" power="10000.00" efficiency="0.95" actualBatteryCapacity="12976.18" maximumBatteryCapacity="35000.00"/>
            <step time="18.00" chargingStatus="chargingStopped" energyCharged="0.53" partialCharge="16.89" power="10000.00" efficiency="0.95" actualBatteryCapacity="12976.70" maximumBatteryCapacity="35000.00"/>
            <step time="18.20" chargingStatus="chargingStopped" energyCharged="0.53" partialCharge="17.42" power="10000.00" efficiency="0.95" actualBatteryCapacity="12977.23" maximumBatteryCapacity="35000.00"/>
            <step time="18.40" chargingStatus="chargingStopped" energyCharged="0.53" partialCharge="17.94" power="10000.00" efficiency="0.95" actualBatteryCapacity="12977.75" maximumBatteryCapacity="35000.00"/>
            <step time="18.60" chargingStatus="chargingStopped" energyCharged="0.53" partialCharge="18.47" power="10000.00" efficiency="0.95" actualBatteryCapacity="12978.28" maximumBatteryCapacity="35000.00"/>
        </vehicle>
        <vehicle id="veh1" type="ElectricVehicle2" totalEnergyChargedIntoVehicle="18.47" chargingBegin="24.60" chargingEnd="31.40">
            <step time="24.60" chargingStatus="chargingStopped" energyCharged="0.53" partialCharge="19.00" power="10000.00" efficiency="0.95" actualBatteryCapacity="11958.10" maximumBatteryCapacity="35000.00"/>
            <step time="24.80" chargingStatus="chargingStopped" energyCharged="0.53" partialCharge="19.53" power="10000.00" efficiency="0.95" actualBatteryCapacity="11958.63" maximumBatteryCapacity="35000.00"/>
            <step time="25.00" chargingStatus="chargingStopped" energyCharged="0.53" partialCharge="20.06" power="10000.00" efficiency="0.95" actualBatteryCapacity="11959.16" maximumBatteryCapacity="35000.00"/>
            <step time="25.20" chargingStatus="chargingStopped" energyCharged="0.53" partialCharge="20.58" power="10000.00" efficiency="0.95" actualBatteryCapacity="11959.68" maximumBatteryCapacity="35000.00"/>
            <step time="25.40" chargingStatus="chargingStopped" energyCharged="0.53" partialCharge="21.11" power="10000.00" efficiency="0.95" actualBatteryCapacity="11960.21" maximumBatteryCapacity="35000.00"/>
            <step time="25.60" chargingStatus="chargingStopped" energyCharged="0.53" partialCharge="21.64" power="10000.00" efficiency="0.95" actualBatteryCapacity="11960.73" maximumBatteryCapacity="35000.00"/>
            <step time="25.80" chargingStatus="chargingStopped" energyCharged="0.53" partialCharge="22.17" power="10000.00" efficiency="0.95" actualBatteryCapacity="11961.26" maximumBatteryCapacity="35000.00"/>
            <step time="26.00" chargingStatus="chargingStopped" energyCharged="0.53" partialCharge="22.69" power="10000.00" efficiency="0.95" actualBatteryCapacity="11961.78" maximumBatteryCapacity="35000.00"/>
            <step time="26.20" chargingStatus="chargingStopped" energyCharged="0.53" partialCharge="23.22" power="10000.00" efficiency="0.95" actualBatteryCapacity="11962.31" maximumBatteryCapacity="35000.00"/>
            <step time="26.40" chargingStatus="chargingStopped" energyCharged="0.53" partialCharge="23.75" power="10000.00" efficiency="0.95" actualBatteryCapacity="11962.83" maximumBatteryCapacity="35000.00"/>
            <step time="26.60" chargingStatus="chargingStopped" energyCharged="0.53" partialCharge="24.28" power="10000.00" efficiency="0.95" actualBatteryCapacity="11963.36" maximumBatteryCapacity="35000.00"/>
            <step time="26.80" chargingStatus="chargingStopped" energyCharged="0.53" partialCharge="24.81" power="10000.00" efficiency="0.95" actualBatteryCapacity="11963.89" maximumBatteryCapacity="35000.00"/>
            <step time="27.00" chargingStatus="chargingStopped" energyCharged="0.53" partialCharge="25.33" power="10000.00" efficiency="0.95" actualBatteryCapacity="11964.41" maximumBatteryCapacity="35000.00"/>
            <step time="27.20" chargingStatus="chargingStopped" energyCharged="0.53" partialCharge="25.86" power="10000.00" efficiency="0.95" actualBatteryCapacity="11964.94" maximumBatteryCapacity="35000.00"/>
            <step time="27.40" chargingStatus="chargingStopped" energyCharged="0.53" partialCharge="26.39" power="10000.00" efficiency="0.95" actualBatteryCapacity="11965.46" maximumBatteryCapacity="35000.00"/>
            <step time="27.60" chargingStatus="chargingStopped" energyCharged="0.53" partialCharge="26.92" power="10000.00" efficiency="0.95" actualBatteryCapacity="11965.99" maximumBatteryCapacity="35000.00"/>
            <step time="27.80" chargingStatus="chargingStopped" energyCharged="0.53" partialCharge="27.44" power="10000.00" efficiency="0.95" actualBatteryCapacity="11966.51" maximumBatteryCapacity="35000.00"/>
            <step time="28.00" chargingStatus="chargingStopped" energyCharged="0.53" partialCharge="28.50" power="10000.00" efficiency="0.95" actualBatteryCapacity="11967.04" maximumBatteryCapacity="35000.00"/>
            <step time="28.20" chargingStatus="chargingStopped" energyCharged="0.53" partialCharge="29.56" power="10000.00" efficiency="0.95" actualBatteryCapacity="11967.56" maximumBatteryCapacity="35000.00"/>
            <step time="28.40" chargingStatus="chargingStopped" energyCharged="0.53" partialCharge="30.61" power="10000.00" efficiency="0.95" actualBatteryCapacity="11968.09" maximumBatteryCapacity="35000.00"/>
            <step time="28.60" chargingStatus="chargingStopped" energyCharged="0.53" partialCharge="31.67" power="10000.00" efficiency="0.95" actualBatteryCapacity="11968.62" maximumBatteryCapacity="35000.00"/>
            <step time="28.80" chargingStatus="chargingStopped" energyCharged="0.53" partialCharge="32.72" power="10000.00" efficiency="0.95" actualBatteryCapacity="11969.14" maximumBatteryCapacity="35000.00"/>
            <step time="29.00" chargingStatus="chargingStopped" energyCharged="0.53" partialCharge="33.78" power="10000.00" efficiency="0.95" actualBatteryCapacity="11969.67" maximumBatteryCapacity="35000.00"/>
            <step time="29.20" chargingStatus="chargingStopped" energyCharged="0.53" partialCharge="34.83" power="10000.00" efficiency="0.95" actualBatteryCapacity="11970.19" maximumBatteryCapacity="35000.00"/>
            <step time="29.40" chargingStatus="chargingStopped" energyCharged="0.53" partialCharge="35.89" power="10000.00" efficiency="0.95" actualBatteryCapacity="11970.72" maximumBatteryCapacity="35000.00"/>
            <step time="29.60" chargingStatus="chargingStopped" energyCharged="0.53" partialCharge="36.94" power="10000.00" efficiency="0.95" actualBatteryCapacity="11971.24" maximumBatteryCapacity="35000.00"/>
            <step time="29.80" chargingStatus="chargingStopped" energyCharged="0.53" partialCharge="38.00" power="10000.00" efficiency="0.95" actualBatteryCapacity="11971.77" maximumBatteryCapacity="35000.00"/>
            <step time="30.00" chargingStatus="chargingStopped" energyCharged="0.53" partialCharge="39.06" power="10000.00" efficiency="0.95" actualBatteryCapacity="11972.29" maximumBatteryCapacity="35000.00"/>
            <step time="30.20" chargingStatus="chargingStopped" energyCharged="0.53" partialCharge="40.11" power="10000.00" efficiency="0.95" actualBatteryCapacity="11972.82" maximumBatteryCapacity="35000.00"/>
            <step time="30.40" chargingStatus="chargingStopped" energyCharged="0.53" partialCharge="41.17" power="10000.00" efficiency="0.95" actualBatteryCapacity="11973.35" maximumBatteryCapacity="35000.00"/>
            <step time="30.60" chargingStatus="chargingStopped" energyCharged="0.53" partialCharge="42.22" power="10000.00" efficiency="0.95" actualBatteryCapacity="11973.87" maximumBatteryCapacity="35000.00"/>
            <step time="30.80" chargingStatus="chargingStopped" energyCharged="0.53" partialCharge="43.28" power="10000.00" efficiency="0.95" actualBatteryCapacity="11974.40" maximumBatteryCapacity="35000.00"/>
            <step time="31.00" chargingStatus="chargingStopped" energyCharged="0.53" partialCharge="44.33" power="10000.00" efficiency="0.95" actualBatteryCapacity="11974.92" maximumBatteryCapacity="35000.00"/>
            <step time="31.20" chargingStatus="chargingStopped" energyCharged="0.53" partialCharge="45.39" power="10000.00" efficiency="0.95" actualBatteryCapacity="11975.45" maximumBatteryCapacity="35000.00"/>
            <step time="31.40" chargingStatus="chargingStopped" energyCharged="0.53" partialCharge="46.44" power="10000.00" efficiency="0.95" actualBatteryCapacity="11975.97" maximumBatteryCapacity="35000.00"/>
        </vehicle>
        <vehicle id="veh2" type="ElectricVehicle2" totalEnergyChargedIntoVehicle="26.39" chargingBegin="27.80" chargingEnd="37.60">
            <step time="27.80" chargingStatus="chargingStopped" energyCharged="0.53" partialCharge="27.97" power="10000.00" efficiency="0.95" actualBatteryCapacity="9964.46" maximumBatteryCapacity="35000.00"/>
            <step time="28.00" chargingStatus="chargingStopped" energyCharged="0.53" partialCharge="29.03" power="10000.00" efficiency="0.95" actualBatteryCapacity="9964.99" maximumBatteryCapacity="35000.00"/>
            <step time="28.20" chargingStatus="chargingStopped" energyCharged="0.53" partialCharge="30.08" power="10000.00" efficiency="0.95" actualBatteryCapacity="9965.52" maximumBatteryCapacity="35000.00"/>
            <step time="28.40" chargingStatus="chargingStopped" energyCharged="0.53" partialCharge="31.14" power="10000.00" efficiency="0.95" actualBatteryCapacity="9966.04" maximumBatteryCapacity="35000.00"/>
            <step time="28.60" chargingStatus="chargingStopped" energyCharged="0.53" partialCharge="32.19" power="10000.00" efficiency="0.95" actualBatteryCapacity="9966.57" maximumBatteryCapacity="35000.00"/>
            <step time="28.80" chargingStatus="chargingStopped" energyCharged="0.53" partialCharge="33.25" power="10000.00" efficiency="0.95" actualBatteryCapacity="9967.09" maximumBatteryCapacity="35000.00"/>
            <step time="29.00" chargingStatus="chargingStopped" energyCharged="0.53" partialCharge="34.31" power="10000.00" efficiency="0.95" actualBatteryCapacity="9967.62" maximumBatteryCapacity="35000.00"/>
            <step time="29.20" chargingStatus="chargingStopped" energyCharged="0.53" partialCharge="35.36" power="10000.00" efficiency="0.95" actualBatteryCapacity="9968.15" maximumBatteryCapacity="35000.00"/>
            <step time="29.40" chargingStatus="chargingStopped" energyCharged="0.53" partialCharge="36.42" power="10000.00" efficiency="0.95" actualBatteryCapacity="9968.67" maximumBatteryCapacity="35000.00"/>
            <step time="29.60" chargingStatus="chargingStopped" energyCharged="0.53" partialCharge="37.47" power="10000.00" efficiency="0.95" actualBatteryCapacity="9969.20" maximumBatteryCapacity="35000.00"/>
            <step time="29.80" chargingStatus="chargingStopped" energyCharged="0.53" partialCharge="38.53" power="10000.00" efficiency="0.95" actualBatteryCapacity="9969.72" maximumBatteryCapacity="35000.00"/>
            <step time="30.00" chargingStatus="chargingStopped" energyCharged="0.53" partialCharge="39.58" power="10000.00" efficiency="0.95" actualBatteryCapacity="9970.25" maximumBatteryCapacity="35000.00"/>
            <step time="30.20" chargingStatus="chargingStopped" energyCharged="0.53" partialCharge="40.64" power="10000.00" efficiency="0.95" actualBatteryCapacity="9970.77" maximumBatteryCapacity="35000.00"/>
            <step time="30.40" chargingStatus="chargingStopped" energyCharged="0.53" partialCharge="41.69" power="10000.00" efficiency="0.95" actualBatteryCapacity="9971.30" maximumBatteryCapacity="35000.00"/>
            <step time="30.60" chargingStatus="chargingStopped" energyCharged="0.53" partialCharge="42.75" power="10000.00" efficiency="0.95" actualBatteryCapacity="9971.82" maximumBatteryCapacity="35000.00"/>
            <step time="30.80" chargingStatus="chargingStopped" energyCharged="0.53" partialCharge="43.81" power="10000.00" efficiency="0.95" actualBatteryCapacity="9972.35" maximumBatteryCapacity="35000.00"/>
            <step time="31.00" chargingStatus="chargingStopped" energyCharged="0.53" partialCharge="44.86" power="10000.00" efficiency="0.95" actualBatteryCapacity="9972.88" maximumBatteryCapacity="35000.00"/>
            <step time="31.20" chargingStatus="chargingStopped" energyCharged="0.53" partialCharge="45.92" power="10000.00" efficiency="0.95" actualBatteryCapacity="9973.40" maximumBatteryCapacity="35000.00"/>
            <step time="31.40" chargingStatus="chargingStopped" energyCharged="0.53" partialCharge="46.97" power="10000.00" efficiency="0.95" actualBatteryCapacity="9973.93" maximumBatteryCapacity="35000.00"/>
            <step time="31.60" chargingStatus="chargingStopped" energyCharged="0.53" partialCharge="47.50" power="10000.00" efficiency="0.95" actualBatteryCapacity="9974.45" maximumBatteryCapacity="35000.00"/>
            <step time="31.80" chargingStatus="chargingStopped" energyCharged="0.53" partialCharge="48.03" power="10000.00" efficiency="0.95" actualBatteryCapacity="9974.98" maximumBatteryCapacity="35000.00"/>
            <step time="32.00" chargingStatus="chargingStopped" energyCharged="0.53" partialCharge="48.56" power="10000.00" efficiency="0.95" actualBatteryCapacity="9975.50" maximumBatteryCapacity="35000.00"/>
            <step time="32.20" chargingStatus="chargingStopped" energyCharged="0.53" partialCharge="49.08" power="10000.00" efficiency="0.95" actualBatteryCapacity="9976.03" maximumBatteryCapacity="35000.00"/>
            <step time="32.40" chargingStatus="chargingStopped" energyCharged="0.53" partialCharge="49.61" power="10000.00" efficiency="0.95" actualBatteryCapacity="9976.55" maximumBatteryCapacity="35000.00"/>
            <step time="32.60" chargingStatus="chargingStopped" energyCharged="0.53" partialCharge="50.14" power="10000.00" efficiency="0.95" actualBatteryCapacity="9977.08" maximumBatteryCapacity="35000.00"/>
            <step time="32.80" chargingStatus="chargingStopped" energyCharged="0.53" partialCharge="50.67" power="10000.00" efficiency="0.95" actualBatteryCapacity="9977.61" maximumBatteryCapacity="35000.00"/>
            <step time="33.00" chargingStatus="chargingStopped" energyCharged="0.53" partialCharge="51.19" power="10000.00" efficiency="0.95" actualBatteryCapacity="9978.13" maximumBatteryCapacity="35000.00"/>
            <step time="33.20" chargingStatus="chargingStopped" energyCharged="0.53" partialCharge="51.72" power="10000.00" efficiency="0.95" actualBatteryCapacity="9978.66" maximumBatteryCapacity="35000.00"/>
            <step time="33.40" chargingStatus="chargingStopped" energyCharged="0.53" partialCharge="52.25" power="10000.00" efficiency="0.95" actualBatteryCapacity="9979.18" maximumBatteryCapacity="35000.00"/>
            <step time="33.60" chargingStatus="chargingStopped" energyCharged="0.53" partialCharge="52.78" power="10000.00" efficiency="0.95" actualBatteryCapacity="9979.71" maximumBatteryCapacity="35000.00"/>
            <step time="33.80" chargingStatus="chargingStopped" energyCharged="0.53" partialCharge="53.31" power="10000.00" efficiency="0.95" actualBatteryCapacity="9980.23" maximumBatteryCapacity="35000.00"/>
            <step time="34.00" chargingStatus="chargingStopped" energyCharged="0.53" partialCharge="53.83" power="10000.00" efficiency="0.95" actualBatteryCapacity="9980.76" maximumBatteryCapacity="35000.00"/>
            <step time="34.20" chargingStatus="chargingStopped" energyCharged="0.53" partialCharge="54.36" power="10000.00" efficiency="0.95" actualBatteryCapacity="9981.28" maximumBatteryCapacity="35000.00"/>
            <step time="34.40" chargingStatus="chargingStopped" energyCharged="0.53" partialCharge="54.89" power="10000.00" efficiency="0.95" actualBatteryCapacity="9981.81" maximumBatteryCapacity="35000.00"/>
            <step time="34.60" chargingStatus="chargingStopped" energyCharged="0.53" partialCharge="55.42" power="10000.00" efficiency="0.95" actualBatteryCapacity="9982.34" maximumBatteryCapacity="35000.00"/>
            <step time="34.80" chargingStatus="chargingStopped" energyCharged="0.53" partialCharge="55.94" power="10000.00" efficiency="0.95" actualBatteryCapacity="9982.86" maximumBatteryCapacity="35000.00"/>
            <step time="35.00" chargingStatus="chargingStopped" energyCharged="0.53" partialCharge="56.47" power="10000.00" efficiency="0.95" actualBatteryCapacity="9983.39" maximumBatteryCapacity="35000.00"/>
            <step time="35.20" chargingStatus="chargingStopped" energyCharged="0.53" partialCharge="57.00" power="10000.00" efficiency="0.95" actualBatteryCapacity="9983.91" maximumBatteryCapacity="35000.00"/>
            <step time="35.40" chargingStatus="chargingStopped" energyCharged="0.53" partialCharge="57.53" power="10000.00" efficiency="0.95" actualBatteryCapacity="9984.44" maximumBatteryCapacity="35000.00"/>
            <step time="35.60" chargingStatus="chargingStopped" energyCharged="0.53" partialCharge="58.06" power="10000.00" efficiency="0.95" actualBatteryCapacity="9984.96" maximumBatteryCapacity="35000.00"/>
            <step time="35.80" chargingStatus="chargingStopped" energyCharged="0.53" partialCharge="58.58" power="10000.00" efficiency="0.95" actualBatteryCapacity="9985.49" maximumBatteryCapacity="35000.00"/>
            <step time="36.00" chargingStatus="chargingStopped" energyCharged="0.53" partialCharge="59.11" power="10000.00" efficiency="0.95" actualBatteryCapacity="9986.01" maximumBatteryCapacity="35000.00"/>
            <step time="36.20" chargingStatus="chargingStopped" energyCharged="0.53" partialCharge="59.64" power="10000.00" efficiency="0.95" actualBatteryCapacity="9986.54" maximumBatteryCapacity="35000.00"/>
            <step time="36.40" chargingStatus="chargingStopped" energyCharged="0.53" partialCharge="60.17" power="10000.00" efficiency="0.95" actualBatteryCapacity="9987.07" maximumBatteryCapacity="35000.00"/>
            <step time="36.60" chargingStatus="chargingStopped" energyCharged="0.53" partialCharge="60.69" power="10000.00" efficiency="0.95" actualBatteryCapacity="9987.59" maximumBatteryCapacity="35000.00"/>
            <step time="36.80" chargingStatus="chargingStopped" energyCharged="0.53" partialCharge="61.22" power="10000.00" efficiency="0.95" actualBatteryCapacity="9988.12" maximumBatteryCapacity="35000.00"/>
            <step time="37.00" chargingStatus="chargingStopped" energyCharged="0.53" partialCharge="61.75" power="10000.00" efficiency="0.95" actualBatteryCapacity="9988.64" maximumBatteryCapacity="35000.00"/>
            <step time="37.20" chargingStatus="chargingStopped" energyCharged="0.53" partialCharge="62.28" power="10000.00" efficiency="0.95" actualBatteryCapacity="9989.17" maximumBatteryCapacity="35000.00"/>
            <step time="37.40" chargingStatus="chargingStopped" energyCharged="0.53" partialCharge="62.81" power="10000.00" efficiency="0.95" actualBatteryCapacity="9989.69" maximumBatteryCapacity="35000.00"/>
            <step time="37.60" chargingStatus="chargingStopped" energyCharged="0.53" partialCharge="63.33" power="10000.00" efficiency="0.95" actualBatteryCapacity="9990.22" maximumBatteryCapacity="35000.00"/>
        </vehicle>
    </chargingStation>
    <chargingStation id="CS2" totalEnergyCharged="119.35" chargingSteps="217">
        <vehicle id="veh0" type="ElectricVehicle1" totalEnergyChargedIntoVehicle="31.35" chargingBegin="26.40" chargingEnd="37.60">
            <step time="26.40" chargingStatus="chargingInTransit" energyCharged="0.55" partialCharge="0.55" power="11000.00" efficiency="0.90" actualBatteryCapacity="12944.38" maximumBatteryCapacity="35000.00"/>
            <step time="26.60" chargingStatus="chargingInTransit" energyCharged="0.55" partialCharge="1.10" power="11000.00" efficiency="0.90" actualBatteryCapacity="12943.15" maximumBatteryCapacity="35000.00"/>
            <step time="26.80" chargingStatus="chargingInTransit" energyCharged="0.55" partialCharge="1.65" power="11000.00" efficiency="0.90" actualBatteryCapacity="12941.87" maximumBatteryCapacity="35000.00"/>
            <step time="27.00" chargingStatus="chargingInTransit" energyCharged="0.55" partialCharge="2.20" power="11000.00" efficiency="0.90" actualBatteryCapacity="12940.54" maximumBatteryCapacity="35000.00"/>
            <step time="27.20" chargingStatus="chargingInTransit" energyCharged="0.55" partialCharge="2.75" power="11000.00" efficiency="0.90" actualBatteryCapacity="12939.17" maximumBatteryCapacity="35000.00"/>
            <step time="27.40" chargingStatus="chargingInTransit" energyCharged="0.55" partialCharge="3.30" power="11000.00" efficiency="0.90" actualBatteryCapacity="12937.75" maximumBatteryCapacity="35000.00"/>
            <step time="27.60" chargingStatus="chargingInTransit" energyCharged="0.55" partialCharge="3.85" power="11000.00" efficiency="0.90" actualBatteryCapacity="12936.29" maximumBatteryCapacity="35000.00"/>
            <step time="27.80" chargingStatus="chargingInTransit" energyCharged="0.55" partialCharge="4.40" power="11000.00" efficiency="0.90" actualBatteryCapacity="12936.93" maximumBatteryCapacity="35000.00"/>
            <step time="28.00" chargingStatus="chargingInTransit" energyCharged="0.55" partialCharge="4.95" power="11000.00" efficiency="0.90" actualBatteryCapacity="12939.92" maximumBatteryCapacity="35000.00"/>
            <step time="28.20" chargingStatus="chargingInTransit" energyCharged="0.55" partialCharge="5.50" power="11000.00" efficiency="0.90" actualBatteryCapacity="12942.63" maximumBatteryCapacity="35000.00"/>