<?xml version="1.0" encoding="UTF-8"?>

<!-- generated on Tue May 26 12:55:59 2020 by Eclipse SUMO Version v1_6_0+0377-4ce6af3e00
This data file and the accompanying materials
are made available under the terms of the Eclipse Public License v2.0
which accompanies this distribution, and is available at
http://www.eclipse.org/legal/epl-v20.html
SPDX-License-Identifier: EPL-2.0
<configuration xmlns:xsi="http://www.w3.org/2001/XMLSchema-instance" xsi:noNamespaceSchemaLocation="http://sumo.dlr.de/xsd/sumoConfiguration.xsd">

    <input>
        <net-file value="net.net.xml"/>
        <route-files value="input_routes.rou.xml"/>
        <additional-files value="input_additional.add.xml"/>
    </input>

    <output>
        <write-license value="true"/>
        <battery-output value="battery.xml"/>
        <battery-output.precision value="4"/>
        <chargingstations-output value="chargingstations.xml"/>
    </output>

    <time>
        <step-length value="0.2"/>
    </time>

    <processing>
        <default.speeddev value="0"/>
    </processing>

    <report>
        <xml-validation value="never"/>
        <duration-log.disable value="true"/>
        <no-step-log value="true"/>
    </report>

    <battery>
        <device.battery.probability value="1"/>
    </battery>

    <gui_only>
        <tracker-interval value="0.2"/>
    </gui_only>

</configuration>
-->

<chargingstations-export>
    <chargingStation id="CS1" totalEnergyCharged="63.33" chargingSteps="120">
        <vehicle id="veh0" type="ElectricVehicle1" totalEnergyChargedIntoVehicle="0.53" chargingBegin="11.80" chargingEnd="11.80">
            <step time="11.80" chargingStatus="chargingStopped" energyCharged="0.53" partialCharge="0.53" power="10000.00" efficiency="0.95" actualBatteryCapacity="12959.58" maximumBatteryCapacity="35000.00"/>
        </vehicle>
        <vehicle id="veh0" type="ElectricVehicle1" totalEnergyChargedIntoVehicle="0.53" chargingBegin="12000" chargingEnd="12000">
            <step time="12.00" chargingStatus="chargingStopped" energyCharged="0.53" partialCharge="1.06" power="10000.00" efficiency="0.95" actualBatteryCapacity="12960.10" maximumBatteryCapacity="35000.00"/>
        </vehicle>
        <vehicle id="veh0" type="ElectricVehicle1" totalEnergyChargedIntoVehicle="0.53" chargingBegin="12200" chargingEnd="12200">
            <step time="12.20" chargingStatus="chargingStopped" energyCharged="0.53" partialCharge="1.58" power="10000.00" efficiency="0.95" actualBatteryCapacity="12960.61" maximumBatteryCapacity="35000.00"/>
        </vehicle>
        <vehicle id="veh0" type="ElectricVehicle1" totalEnergyChargedIntoVehicle="0.53" chargingBegin="12400" chargingEnd="12400">
            <step time="12.40" chargingStatus="chargingStopped" energyCharged="0.53" partialCharge="2.11" power="10000.00" efficiency="0.95" actualBatteryCapacity="12961.12" maximumBatteryCapacity="35000.00"/>
        </vehicle>
        <vehicle id="veh0" type="ElectricVehicle1" totalEnergyChargedIntoVehicle="0.53" chargingBegin="12600" chargingEnd="12600">
            <step time="12.60" chargingStatus="chargingStopped" energyCharged="0.53" partialCharge="2.64" power="10000.00" efficiency="0.95" actualBatteryCapacity="12961.64" maximumBatteryCapacity="35000.00"/>
        </vehicle>
        <vehicle id="veh0" type="ElectricVehicle1" totalEnergyChargedIntoVehicle="0.53" chargingBegin="12800" chargingEnd="12800">
            <step time="12.80" chargingStatus="chargingStopped" energyCharged="0.53" partialCharge="3.17" power="10000.00" efficiency="0.95" actualBatteryCapacity="12962.15" maximumBatteryCapacity="35000.00"/>
        </vehicle>
        <vehicle id="veh0" type="ElectricVehicle1" totalEnergyChargedIntoVehicle="0.53" chargingBegin="13000" chargingEnd="13000">
            <step time="13.00" chargingStatus="chargingStopped" energyCharged="0.53" partialCharge="3.69" power="10000.00" efficiency="0.95" actualBatteryCapacity="12962.67" maximumBatteryCapacity="35000.00"/>
        </vehicle>
        <vehicle id="veh0" type="ElectricVehicle1" totalEnergyChargedIntoVehicle="0.53" chargingBegin="13200" chargingEnd="13200">
            <step time="13.20" chargingStatus="chargingStopped" energyCharged="0.53" partialCharge="4.22" power="10000.00" efficiency="0.95" actualBatteryCapacity="12963.18" maximumBatteryCapacity="35000.00"/>
        </vehicle>
        <vehicle id="veh0" type="ElectricVehicle1" totalEnergyChargedIntoVehicle="0.53" chargingBegin="13400" chargingEnd="13400">
            <step time="13.40" chargingStatus="chargingStopped" energyCharged="0.53" partialCharge="4.75" power="10000.00" efficiency="0.95" actualBatteryCapacity="12963.69" maximumBatteryCapacity="35000.00"/>
        </vehicle>
        <vehicle id="veh0" type="ElectricVehicle1" totalEnergyChargedIntoVehicle="0.53" chargingBegin="13600" chargingEnd="13600">
            <step time="13.60" chargingStatus="chargingStopped" energyCharged="0.53" partialCharge="5.28" power="10000.00" efficiency="0.95" actualBatteryCapacity="12964.21" maximumBatteryCapacity="35000.00"/>
        </vehicle>
        <vehicle id="veh0" type="ElectricVehicle1" totalEnergyChargedIntoVehicle="0.53" chargingBegin="13800" chargingEnd="13800">
            <step time="13.80" chargingStatus="chargingStopped" energyCharged="0.53" partialCharge="5.81" power="10000.00" efficiency="0.95" actualBatteryCapacity="12964.72" maximumBatteryCapacity="35000.00"/>
        </vehicle>
        <vehicle id="veh0" type="ElectricVehicle1" totalEnergyChargedIntoVehicle="0.53" chargingBegin="14000" chargingEnd="14000">
            <step time="14.00" chargingStatus="chargingStopped" energyCharged="0.53" partialCharge="6.33" power="10000.00" efficiency="0.95" actualBatteryCapacity="12965.23" maximumBatteryCapacity="35000.00"/>
        </vehicle>
        <vehicle id="veh0" type="ElectricVehicle1" totalEnergyChargedIntoVehicle="0.53" chargingBegin="14200" chargingEnd="14200">
            <step time="14.20" chargingStatus="chargingStopped" energyCharged="0.53" partialCharge="6.86" power="10000.00" efficiency="0.95" actualBatteryCapacity="12965.75" maximumBatteryCapacity="35000.00"/>
        </vehicle>
        <vehicle id="veh0" type="ElectricVehicle1" totalEnergyChargedIntoVehicle="0.53" chargingBegin="14400" chargingEnd="14400">
            <step time="14.40" chargingStatus="chargingStopped" energyCharged="0.53" partialCharge="7.39" power="10000.00" efficiency="0.95" actualBatteryCapacity="12966.26" maximumBatteryCapacity="35000.00"/>
        </vehicle>
        <vehicle id="veh0" type="ElectricVehicle1" totalEnergyChargedIntoVehicle="0.53" chargingBegin="14600" chargingEnd="14600">
            <step time="14.60" chargingStatus="chargingStopped" energyCharged="0.53" partialCharge="7.92" power="10000.00" efficiency="0.95" actualBatteryCapacity="12966.78" maximumBatteryCapacity="35000.00"/>
        </vehicle>
        <vehicle id="veh0" type="ElectricVehicle1" totalEnergyChargedIntoVehicle="0.53" chargingBegin="14800" chargingEnd="14800">
            <step time="14.80" chargingStatus="chargingStopped" energyCharged="0.53" partialCharge="8.44" power="10000.00" efficiency="0.95" actualBatteryCapacity="12967.29" maximumBatteryCapacity="35000.00"/>
        </vehicle>
        <vehicle id="veh0" type="ElectricVehicle1" totalEnergyChargedIntoVehicle="0.53" chargingBegin="15000" chargingEnd="15000">
            <step time="15.00" chargingStatus="chargingStopped" energyCharged="0.53" partialCharge="8.97" power="10000.00" efficiency="0.95" actualBatteryCapacity="12967.80" maximumBatteryCapacity="35000.00"/>
        </vehicle>
        <vehicle id="veh0" type="ElectricVehicle1" totalEnergyChargedIntoVehicle="0.53" chargingBegin="15200" chargingEnd="15200">
            <step time="15.20" chargingStatus="chargingStopped" energyCharged="0.53" partialCharge="9.50" power="10000.00" efficiency="0.95" actualBatteryCapacity="12968.32" maximumBatteryCapacity="35000.00"/>
        </vehicle>
        <vehicle id="veh0" type="ElectricVehicle1" totalEnergyChargedIntoVehicle="0.53" chargingBegin="15400" chargingEnd="15400">
            <step time="15.40" chargingStatus="chargingStopped" energyCharged="0.53" partialCharge="10.03" power="10000.00" efficiency="0.95" actualBatteryCapacity="12968.83" maximumBatteryCapacity="35000.00"/>
        </vehicle>
        <vehicle id="veh0" type="ElectricVehicle1" totalEnergyChargedIntoVehicle="0.53" chargingBegin="15600" chargingEnd="15600">
            <step time="15.60" chargingStatus="chargingStopped" energyCharged="0.53" partialCharge="10.56" power="10000.00" efficiency="0.95" actualBatteryCapacity="12969.35" maximumBatteryCapacity="35000.00"/>
        </vehicle>
        <vehicle id="veh0" type="ElectricVehicle1" totalEnergyChargedIntoVehicle="0.53" chargingBegin="15800" chargingEnd="15800">
            <step time="15.80" chargingStatus="chargingStopped" energyCharged="0.53" partialCharge="11.08" power="10000.00" efficiency="0.95" actualBatteryCapacity="12969.86" maximumBatteryCapacity="35000.00"/>
        </vehicle>
        <vehicle id="veh0" type="ElectricVehicle1" totalEnergyChargedIntoVehicle="0.53" chargingBegin="16000" chargingEnd="16000">
            <step time="16.00" chargingStatus="chargingStopped" energyCharged="0.53" partialCharge="11.61" power="10000.00" efficiency="0.95" actualBatteryCapacity="12970.37" maximumBatteryCapacity="35000.00"/>
        </vehicle>
        <vehicle id="veh0" type="ElectricVehicle1" totalEnergyChargedIntoVehicle="0.53" chargingBegin="16200" chargingEnd="16200">
            <step time="16.20" chargingStatus="chargingStopped" energyCharged="0.53" partialCharge="12.14" power="10000.00" efficiency="0.95" actualBatteryCapacity="12970.89" maximumBatteryCapacity="35000.00"/>
        </vehicle>
        <vehicle id="veh0" type="ElectricVehicle1" totalEnergyChargedIntoVehicle="0.53" chargingBegin="16400" chargingEnd="16400">
            <step time="16.40" chargingStatus="chargingStopped" energyCharged="0.53" partialCharge="12.67" power="10000.00" efficiency="0.95" actualBatteryCapacity="12971.40" maximumBatteryCapacity="35000.00"/>
        </vehicle>
        <vehicle id="veh0" type="ElectricVehicle1" totalEnergyChargedIntoVehicle="0.53" chargingBegin="16600" chargingEnd="16600">
            <step time="16.60" chargingStatus="chargingStopped" energyCharged="0.53" partialCharge="13.19" power="10000.00" efficiency="0.95" actualBatteryCapacity="12971.92" maximumBatteryCapacity="35000.00"/>
        </vehicle>
        <vehicle id="veh0" type="ElectricVehicle1" totalEnergyChargedIntoVehicle="0.53" chargingBegin="16800" chargingEnd="16800">
            <step time="16.80" chargingStatus="chargingStopped" energyCharged="0.53" partialCharge="13.72" power="10000.00" efficiency="0.95" actualBatteryCapacity="12972.43" maximumBatteryCapacity="35000.00"/>
        </vehicle>
        <vehicle id="veh0" type="ElectricVehicle1" totalEnergyChargedIntoVehicle="0.53" chargingBegin="17000" chargingEnd="17000">
            <step time="17.00" chargingStatus="chargingStopped" energyCharged="0.53" partialCharge="14.25" power="10000.00" efficiency="0.95" actualBatteryCapacity="12972.94" maximumBatteryCapacity="35000.00"/>
        </vehicle>
        <vehicle id="veh0" type="ElectricVehicle1" totalEnergyChargedIntoVehicle="0.53" chargingBegin="17200" chargingEnd="17200">
            <step time="17.20" chargingStatus="chargingStopped" energyCharged="0.53" partialCharge="14.78" power="10000.00" efficiency="0.95" actualBatteryCapacity="12973.46" maximumBatteryCapacity="35000.00"/>
        </vehicle>
        <vehicle id="veh0" type="ElectricVehicle1" totalEnergyChargedIntoVehicle="0.53" chargingBegin="17400" chargingEnd="17400">
            <step time="17.40" chargingStatus="chargingStopped" energyCharged="0.53" partialCharge="15.31" power="10000.00" efficiency="0.95" actualBatteryCapacity="12973.97" maximumBatteryCapacity="35000.00"/>
        </vehicle>
        <vehicle id="veh0" type="ElectricVehicle1" totalEnergyChargedIntoVehicle="0.53" chargingBegin="17600" chargingEnd="17600">
            <step time="17.60" chargingStatus="chargingStopped" energyCharged="0.53" partialCharge="15.83" power="10000.00" efficiency="0.95" actualBatteryCapacity="12974.48" maximumBatteryCapacity="35000.00"/>
        </vehicle>
        <vehicle id="veh0" type="ElectricVehicle1" totalEnergyChargedIntoVehicle="0.53" chargingBegin="17800" chargingEnd="17800">
            <step time="17.80" chargingStatus="chargingStopped" energyCharged="0.53" partialCharge="16.36" power="10000.00" efficiency="0.95" actualBatteryCapacity="12975.00" maximumBatteryCapacity="35000.00"/>
        </vehicle>
        <vehicle id="veh0" type="ElectricVehicle1" totalEnergyChargedIntoVehicle="0.53" chargingBegin="18000" chargingEnd="18000">
            <step time="18.00" chargingStatus="chargingStopped" energyCharged="0.53" partialCharge="16.89" power="10000.00" efficiency="0.95" actualBatteryCapacity="12975.51" maximumBatteryCapacity="35000.00"/>
        </vehicle>
        <vehicle id="veh0" type="ElectricVehicle1" totalEnergyChargedIntoVehicle="0.53" chargingBegin="18200" chargingEnd="18200">
            <step time="18.20" chargingStatus="chargingStopped" energyCharged="0.53" partialCharge="17.42" power="10000.00" efficiency="0.95" actualBatteryCapacity="12976.03" maximumBatteryCapacity="35000.00"/>
        </vehicle>
        <vehicle id="veh0" type="ElectricVehicle1" totalEnergyChargedIntoVehicle="0.53" chargingBegin="18400" chargingEnd="18400">
            <step time="18.40" chargingStatus="chargingStopped" energyCharged="0.53" partialCharge="17.94" power="10000.00" efficiency="0.95" actualBatteryCapacity="12976.54" maximumBatteryCapacity="35000.00"/>
        </vehicle>
        <vehicle id="veh0" type="ElectricVehicle1" totalEnergyChargedIntoVehicle="0.53" chargingBegin="18600" chargingEnd="18600">
            <step time="18.60" chargingStatus="chargingStopped" energyCharged="0.53" partialCharge="18.47" power="10000.00" efficiency="0.95" actualBatteryCapacity="12977.05" maximumBatteryCapacity="35000.00"/>
        </vehicle>
        <vehicle id="veh1" type="ElectricVehicle2" totalEnergyChargedIntoVehicle="0.53" chargingBegin="24600" chargingEnd="24600">
            <step time="24.60" chargingStatus="chargingStopped" energyCharged="0.53" partialCharge="19.00" power="10000.00" efficiency="0.95" actualBatteryCapacity="11956.89" maximumBatteryCapacity="35000.00"/>
        </vehicle>
        <vehicle id="veh1" type="ElectricVehicle2" totalEnergyChargedIntoVehicle="0.53" chargingBegin="24800" chargingEnd="24800">
            <step time="24.80" chargingStatus="chargingStopped" energyCharged="0.53" partialCharge="19.53" power="10000.00" efficiency="0.95" actualBatteryCapacity="11957.40" maximumBatteryCapacity="35000.00"/>
        </vehicle>
        <vehicle id="veh1" type="ElectricVehicle2" totalEnergyChargedIntoVehicle="0.53" chargingBegin="25000" chargingEnd="25000">
            <step time="25.00" chargingStatus="chargingStopped" energyCharged="0.53" partialCharge="20.06" power="10000.00" efficiency="0.95" actualBatteryCapacity="11957.92" maximumBatteryCapacity="35000.00"/>
        </vehicle>
        <vehicle id="veh1" type="ElectricVehicle2" totalEnergyChargedIntoVehicle="0.53" chargingBegin="25200" chargingEnd="25200">
            <step time="25.20" chargingStatus="chargingStopped" energyCharged="0.53" partialCharge="20.58" power="10000.00" efficiency="0.95" actualBatteryCapacity="11958.43" maximumBatteryCapacity="35000.00"/>
        </vehicle>
        <vehicle id="veh1" type="ElectricVehicle2" totalEnergyChargedIntoVehicle="0.53" chargingBegin="25400" chargingEnd="25400">
            <step time="25.40" chargingStatus="chargingStopped" energyCharged="0.53" partialCharge="21.11" power="10000.00" efficiency="0.95" actualBatteryCapacity="11958.94" maximumBatteryCapacity="35000.00"/>
        </vehicle>
        <vehicle id="veh1" type="ElectricVehicle2" totalEnergyChargedIntoVehicle="0.53" chargingBegin="25600" chargingEnd="25600">
            <step time="25.60" chargingStatus="chargingStopped" energyCharged="0.53" partialCharge="21.64" power="10000.00" efficiency="0.95" actualBatteryCapacity="11959.46" maximumBatteryCapacity="35000.00"/>
        </vehicle>
        <vehicle id="veh1" type="ElectricVehicle2" totalEnergyChargedIntoVehicle="0.53" chargingBegin="25800" chargingEnd="25800">
            <step time="25.80" chargingStatus="chargingStopped" energyCharged="0.53" partialCharge="22.17" power="10000.00" efficiency="0.95" actualBatteryCapacity="11959.97" maximumBatteryCapacity="35000.00"/>
        </vehicle>
        <vehicle id="veh1" type="ElectricVehicle2" totalEnergyChargedIntoVehicle="0.53" chargingBegin="26000" chargingEnd="26000">
            <step time="26.00" chargingStatus="chargingStopped" energyCharged="0.53" partialCharge="22.69" power="10000.00" efficiency="0.95" actualBatteryCapacity="11960.49" maximumBatteryCapacity="35000.00"/>
        </vehicle>
        <vehicle id="veh1" type="ElectricVehicle2" totalEnergyChargedIntoVehicle="0.53" chargingBegin="26200" chargingEnd="26200">
            <step time="26.20" chargingStatus="chargingStopped" energyCharged="0.53" partialCharge="23.22" power="10000.00" efficiency="0.95" actualBatteryCapacity="11961.00" maximumBatteryCapacity="35000.00"/>
        </vehicle>
        <vehicle id="veh1" type="ElectricVehicle2" totalEnergyChargedIntoVehicle="0.53" chargingBegin="26400" chargingEnd="26400">
            <step time="26.40" chargingStatus="chargingStopped" energyCharged="0.53" partialCharge="23.75" power="10000.00" efficiency="0.95" actualBatteryCapacity="11961.51" maximumBatteryCapacity="35000.00"/>
        </vehicle>
        <vehicle id="veh1" type="ElectricVehicle2" totalEnergyChargedIntoVehicle="0.53" chargingBegin="26600" chargingEnd="26600">
            <step time="26.60" chargingStatus="chargingStopped" energyCharged="0.53" partialCharge="24.28" power="10000.00" efficiency="0.95" actualBatteryCapacity="11962.03" maximumBatteryCapacity="35000.00"/>
        </vehicle>
        <vehicle id="veh1" type="ElectricVehicle2" totalEnergyChargedIntoVehicle="0.53" chargingBegin="26800" chargingEnd="26800">
            <step time="26.80" chargingStatus="chargingStopped" energyCharged="0.53" partialCharge="24.81" power="10000.00" efficiency="0.95" actualBatteryCapacity="11962.54" maximumBatteryCapacity="35000.00"/>
        </vehicle>
        <vehicle id="veh1" type="ElectricVehicle2" totalEnergyChargedIntoVehicle="0.53" chargingBegin="27000" chargingEnd="27000">
            <step time="27.00" chargingStatus="chargingStopped" energyCharged="0.53" partialCharge="25.33" power="10000.00" efficiency="0.95" actualBatteryCapacity="11963.05" maximumBatteryCapacity="35000.00"/>
        </vehicle>
        <vehicle id="veh1" type="ElectricVehicle2" totalEnergyChargedIntoVehicle="0.53" chargingBegin="27200" chargingEnd="27200">
            <step time="27.20" chargingStatus="chargingStopped" energyCharged="0.53" partialCharge="25.86" power="10000.00" efficiency="0.95" actualBatteryCapacity="11963.57" maximumBatteryCapacity="35000.00"/>
        </vehicle>
        <vehicle id="veh1" type="ElectricVehicle2" totalEnergyChargedIntoVehicle="0.53" chargingBegin="27400" chargingEnd="27400">
            <step time="27.40" chargingStatus="chargingStopped" energyCharged="0.53" partialCharge="26.39" power="10000.00" efficiency="0.95" actualBatteryCapacity="11964.08" maximumBatteryCapacity="35000.00"/>
        </vehicle>
        <vehicle id="veh1" type="ElectricVehicle2" totalEnergyChargedIntoVehicle="0.53" chargingBegin="27600" chargingEnd="27600">
            <step time="27.60" chargingStatus="chargingStopped" energyCharged="0.53" partialCharge="26.92" power="10000.00" efficiency="0.95" actualBatteryCapacity="11964.60" maximumBatteryCapacity="35000.00"/>
        </vehicle>
        <vehicle id="veh1" type="ElectricVehicle2" totalEnergyChargedIntoVehicle="0.53" chargingBegin="27800" chargingEnd="27800">
            <step time="27.80" chargingStatus="chargingStopped" energyCharged="0.53" partialCharge="27.44" power="10000.00" efficiency="0.95" actualBatteryCapacity="11965.11" maximumBatteryCapacity="35000.00"/>
        </vehicle>
        <vehicle id="veh2" type="ElectricVehicle2" totalEnergyChargedIntoVehicle="0.53" chargingBegin="27800" chargingEnd="27800">
            <step time="27.80" chargingStatus="chargingStopped" energyCharged="0.53" partialCharge="27.97" power="10000.00" efficiency="0.95" actualBatteryCapacity="9963.39" maximumBatteryCapacity="35000.00"/>
        </vehicle>
        <vehicle id="veh1" type="ElectricVehicle2" totalEnergyChargedIntoVehicle="0.53" chargingBegin="28000" chargingEnd="28000">
            <step time="28.00" chargingStatus="chargingStopped" energyCharged="0.53" partialCharge="28.50" power="10000.00" efficiency="0.95" actualBatteryCapacity="11965.62" maximumBatteryCapacity="35000.00"/>
        </vehicle>
        <vehicle id="veh2" type="ElectricVehicle2" totalEnergyChargedIntoVehicle="0.53" chargingBegin="28000" chargingEnd="28000">
            <step time="28.00" chargingStatus="chargingStopped" energyCharged="0.53" partialCharge="29.03" power="10000.00" efficiency="0.95" actualBatteryCapacity="9963.91" maximumBatteryCapacity="35000.00"/>
        </vehicle>
        <vehicle id="veh1" type="ElectricVehicle2" totalEnergyChargedIntoVehicle="0.53" chargingBegin="28200" chargingEnd="28200">
            <step time="28.20" chargingStatus="chargingStopped" energyCharged="0.53" partialCharge="29.56" power="10000.00" efficiency="0.95" actualBatteryCapacity="11966.14" maximumBatteryCapacity="35000.00"/>
        </vehicle>
        <vehicle id="veh2" type="ElectricVehicle2" totalEnergyChargedIntoVehicle="0.53" chargingBegin="28200" chargingEnd="28200">
            <step time="28.20" chargingStatus="chargingStopped" energyCharged="0.53" partialCharge="30.08" power="10000.00" efficiency="0.95" actualBatteryCapacity="9964.42" maximumBatteryCapacity="35000.00"/>
        </vehicle>
        <vehicle id="veh1" type="ElectricVehicle2" totalEnergyChargedIntoVehicle="0.53" chargingBegin="28400" chargingEnd="28400">
            <step time="28.40" chargingStatus="chargingStopped" energyCharged="0.53" partialCharge="30.61" power="10000.00" efficiency="0.95" actualBatteryCapacity="11966.65" maximumBatteryCapacity="35000.00"/>
        </vehicle>
        <vehicle id="veh2" type="ElectricVehicle2" totalEnergyChargedIntoVehicle="0.53" chargingBegin="28400" chargingEnd="28400">
            <step time="28.40" chargingStatus="chargingStopped" energyCharged="0.53" partialCharge="31.14" power="10000.00" efficiency="0.95" actualBatteryCapacity="9964.93" maximumBatteryCapacity="35000.00"/>
        </vehicle>
        <vehicle id="veh1" type="ElectricVehicle2" totalEnergyChargedIntoVehicle="0.53" chargingBegin="28600" chargingEnd="28600">
            <step time="28.60" chargingStatus="chargingStopped" energyCharged="0.53" partialCharge="31.67" power="10000.00" efficiency="0.95" actualBatteryCapacity="11967.17" maximumBatteryCapacity="35000.00"/>
        </vehicle>
        <vehicle id="veh2" type="ElectricVehicle2" totalEnergyChargedIntoVehicle="0.53" chargingBegin="28600" chargingEnd="28600">
            <step time="28.60" chargingStatus="chargingStopped" energyCharged="0.53" partialCharge="32.19" power="10000.00" efficiency="0.95" actualBatteryCapacity="9965.45" maximumBatteryCapacity="35000.00"/>
        </vehicle>
        <vehicle id="veh1" type="ElectricVehicle2" totalEnergyChargedIntoVehicle="0.53" chargingBegin="28800" chargingEnd="28800">
            <step time="28.80" chargingStatus="chargingStopped" energyCharged="0.53" partialCharge="32.72" power="10000.00" efficiency="0.95" actualBatteryCapacity="11967.68" maximumBatteryCapacity="35000.00"/>
        </vehicle>
        <vehicle id="veh2" type="ElectricVehicle2" totalEnergyChargedIntoVehicle="0.53" chargingBegin="28800" chargingEnd="28800">
            <step time="28.80" chargingStatus="chargingStopped" energyCharged="0.53" partialCharge="33.25" power="10000.00" efficiency="0.95" actualBatteryCapacity="9965.96" maximumBatteryCapacity="35000.00"/>
        </vehicle>
        <vehicle id="veh1" type="ElectricVehicle2" totalEnergyChargedIntoVehicle="0.53" chargingBegin="29000" chargingEnd="29000">
            <step time="29.00" chargingStatus="chargingStopped" energyCharged="0.53" partialCharge="33.78" power="10000.00" efficiency="0.95" actualBatteryCapacity="11968.19" maximumBatteryCapacity="35000.00"/>
        </vehicle>
        <vehicle id="veh2" type="ElectricVehicle2" totalEnergyChargedIntoVehicle="0.53" chargingBegin="29000" chargingEnd="29000">
            <step time="29.00" chargingStatus="chargingStopped" energyCharged="0.53" partialCharge="34.31" power="10000.00" efficiency="0.95" actualBatteryCapacity="9966.47" maximumBatteryCapacity="35000.00"/>
        </vehicle>
        <vehicle id="veh1" type="ElectricVehicle2" totalEnergyChargedIntoVehicle="0.53" chargingBegin="29200" chargingEnd="29200">
            <step time="29.20" chargingStatus="chargingStopped" energyCharged="0.53" partialCharge="34.83" power="10000.00" efficiency="0.95" actualBatteryCapacity="11968.71" maximumBatteryCapacity="35000.00"/>
        </vehicle>
        <vehicle id="veh2" type="ElectricVehicle2" totalEnergyChargedIntoVehicle="0.53" chargingBegin="29200" chargingEnd="29200">
            <step time="29.20" chargingStatus="chargingStopped" energyCharged="0.53" partialCharge="35.36" power="10000.00" efficiency="0.95" actualBatteryCapacity="9966.99" maximumBatteryCapacity="35000.00"/>
        </vehicle>
        <vehicle id="veh1" type="ElectricVehicle2" totalEnergyChargedIntoVehicle="0.53" chargingBegin="29400" chargingEnd="29400">
            <step time="29.40" chargingStatus="chargingStopped" energyCharged="0.53" partialCharge="35.89" power="10000.00" efficiency="0.95" actualBatteryCapacity="11969.22" maximumBatteryCapacity="35000.00"/>
        </vehicle>
        <vehicle id="veh2" type="ElectricVehicle2" totalEnergyChargedIntoVehicle="0.53" chargingBegin="29400" chargingEnd="29400">
            <step time="29.40" chargingStatus="chargingStopped" energyCharged="0.53" partialCharge="36.42" power="10000.00" efficiency="0.95" actualBatteryCapacity="9967.50" maximumBatteryCapacity="35000.00"/>
        </vehicle>
        <vehicle id="veh1" type="ElectricVehicle2" totalEnergyChargedIntoVehicle="0.53" chargingBegin="29600" chargingEnd="29600">
            <step time="29.60" chargingStatus="chargingStopped" energyCharged="0.53" partialCharge="36.94" power="10000.00" efficiency="0.95" actualBatteryCapacity="11969.74" maximumBatteryCapacity="35000.00"/>
        </vehicle>
        <vehicle id="veh2" type="ElectricVehicle2" totalEnergyChargedIntoVehicle="0.53" chargingBegin="29600" chargingEnd="29600">
            <step time="29.60" chargingStatus="chargingStopped" energyCharged="0.53" partialCharge="37.47" power="10000.00" efficiency="0.95" actualBatteryCapacity="9968.02" maximumBatteryCapacity="35000.00"/>
        </vehicle>
        <vehicle id="veh1" type="ElectricVehicle2" totalEnergyChargedIntoVehicle="0.53" chargingBegin="29800" chargingEnd="29800">
            <step time="29.80" chargingStatus="chargingStopped" energyCharged="0.53" partialCharge="38.00" power="10000.00" efficiency="0.95" actualBatteryCapacity="11970.25" maximumBatteryCapacity="35000.00"/>
        </vehicle>
        <vehicle id="veh2" type="ElectricVehicle2" totalEnergyChargedIntoVehicle="0.53" chargingBegin="29800" chargingEnd="29800">
            <step time="29.80" chargingStatus="chargingStopped" energyCharged="0.53" partialCharge="38.53" power="10000.00" efficiency="0.95" actualBatteryCapacity="9968.53" maximumBatteryCapacity="35000.00"/>
        </vehicle>
        <vehicle id="veh1" type="ElectricVehicle2" totalEnergyChargedIntoVehicle="0.53" chargingBegin="30000" chargingEnd="30000">
            <step time="30.00" chargingStatus="chargingStopped" energyCharged="0.53" partialCharge="39.06" power="10000.00" efficiency="0.95" actualBatteryCapacity="11970.76" maximumBatteryCapacity="35000.00"/>
        </vehicle>
        <vehicle id="veh2" type="ElectricVehicle2" totalEnergyChargedIntoVehicle="0.53" chargingBegin="30000" chargingEnd="30000">
            <step time="30.00" chargingStatus="chargingStopped" energyCharged="0.53" partialCharge="39.58" power="10000.00" efficiency="0.95" actualBatteryCapacity="9969.04" maximumBatteryCapacity="35000.00"/>
        </vehicle>
        <vehicle id="veh1" type="ElectricVehicle2" totalEnergyChargedIntoVehicle="0.53" chargingBegin="30200" chargingEnd="30200">
            <step time="30.20" chargingStatus="chargingStopped" energyCharged="0.53" partialCharge="40.11" power="10000.00" efficiency="0.95" actualBatteryCapacity="11971.28" maximumBatteryCapacity="35000.00"/>
        </vehicle>
        <vehicle id="veh2" type="ElectricVehicle2" totalEnergyChargedIntoVehicle="0.53" chargingBegin="30200" chargingEnd="30200">
            <step time="30.20" chargingStatus="chargingStopped" energyCharged="0.53" partialCharge="40.64" power="10000.00" efficiency="0.95" actualBatteryCapacity="9969.56" maximumBatteryCapacity="35000.00"/>
        </vehicle>
        <vehicle id="veh1" type="ElectricVehicle2" totalEnergyChargedIntoVehicle="0.53" chargingBegin="30400" chargingEnd="30400">
            <step time="30.40" chargingStatus="chargingStopped" energyCharged="0.53" partialCharge="41.17" power="10000.00" efficiency="0.95" actualBatteryCapacity="11971.79" maximumBatteryCapacity="35000.00"/>
        </vehicle>
        <vehicle id="veh2" type="ElectricVehicle2" totalEnergyChargedIntoVehicle="0.53" chargingBegin="30400" chargingEnd="30400">
            <step time="30.40" chargingStatus="chargingStopped" energyCharged="0.53" partialCharge="41.69" power="10000.00" efficiency="0.95" actualBatteryCapacity="9970.07" maximumBatteryCapacity="35000.00"/>
        </vehicle>