<routes>
	<flow id="f1" period="0.1" departpos="free" route="1"/>
</routes>
