<?xml version="1.0" encoding="UTF-8"?>

<!-- generated on 19.07.2017 15:20:38 by Netedit Version dev-SVN-r22743
<?xml version="1.0" encoding="UTF-8"?>

<configuration xmlns:xsi="http://www.w3.org/2001/XMLSchema-instance" xsi:noNamespaceSchemaLocation="http://sumo.dlr.de/xsd/netconvertConfiguration.xsd">

    <input>
        <sumo-net-file value="C:\Projects\SUMO_Trunk\tests\netedit\netElements\crossings\create\input_net.net.xml"/>
    </input>

    <output>
        <output-file value="C:\Projects\SUMO_Trunk\tests\netedit\netElements\crossings\create\input_net.net.xml"/>
        <plain-output-prefix value="C:\Projects\SUMO_Trunk\tests\netedit\netElements\crossings\create\input_net"/>
    </output>

    <processing>
        <no-internal-links value="true"/>
        <no-turnarounds value="true"/>
        <offset.disable-normalization value="true"/>
        <lefthand value="false"/>
        <junctions.corner-detail value="0"/>
        <rectangular-lane-cut value="false"/>
        <walkingareas value="false"/>
    </processing>

</configuration>
-->

<connections version="0.27" xmlns:xsi="http://www.w3.org/2001/XMLSchema-instance" xsi:noNamespaceSchemaLocation="http://sumo.dlr.de/xsd/connections_file.xsd">
    <connection from="5" to="4" fromLane="0" toLane="0"/>
    <connection from="5" to="2" fromLane="0" toLane="0"/>
    <connection from="5" to="2" fromLane="1" toLane="1"/>
    <connection from="5" to="3" fromLane="1" toLane="1"/>

    <connection from="6" to="3" fromLane="0" toLane="0"/>
    <connection from="6" to="1" fromLane="0" toLane="0"/>
    <connection from="6" to="1" fromLane="1" toLane="1"/>
    <connection from="6" to="4" fromLane="1" toLane="1"/>

    <connection from="7" to="1" fromLane="0" toLane="0"/>
    <connection from="7" to="4" fromLane="0" toLane="0"/>
    <connection from="7" to="4" fromLane="1" toLane="1"/>
    <connection from="7" to="2" fromLane="1" toLane="1"/>

    <connection from="8" to="2" fromLane="0" toLane="0"/>
    <connection from="8" to="3" fromLane="0" toLane="0"/>
    <connection from="8" to="3" fromLane="1" toLane="1"/>
    <connection from="8" to="1" fromLane="1" toLane="1"/>

</connections>
