<?xml version="1.0" encoding="UTF-8"?>

<!-- generated on 2022-03-21 10:27:01 by Eclipse SUMO netedit Version v1_12_0+1543-06f48ec75fb
-->

<routes xmlns:xsi="http://www.w3.org/2001/XMLSchema-instance" xsi:noNamespaceSchemaLocation="http://sumo.dlr.de/xsd/routes_file.xsd">
    <!-- Vehicles, persons and containers (sorted by depart) -->
    <flow id="f_0" begin="0.00" from="gneE2" to="gneE5" end="3600.00" number="1800"/>
    <flow id="f_1" begin="0.00" from="gneE2" to="gneE5" end="20.50" number="1800"/>
    <flow id="f_2" begin="0.00" from="gneE2" to="gneE5" end="22.00" number="51"/>
</routes>
