<?xml version="1.0" encoding="UTF-8"?>

<!-- generated on 2022-07-07 11:20:47.869099 by generateRailSignalConstraints.py v1_13_0+1343-240e5d48340
<configuration>
    <abort-unordered value="True"/>
    <additional-file value="input_additional.add.xml"/>
    <net-file value="net.net.xml"/>
    <output-file value="out.add.xml"/>
    <route-file value="input_routes2.rou.xml"/>
</configuration>
-->

<additional xmlns:xsi="http://www.w3.org/2001/XMLSchema-instance" xsi:noNamespaceSchemaLocation="http://sumo.dlr.de/xsd/additional_file.xsd">
    <railSignalConstraints id="A">
        <predecessor tripId="t0" tl="D" foes="t1"/>
        <predecessor tripId="t4" tl="D" foes="t5"/>
    </railSignalConstraints>
    <railSignalConstraints id="D">
        <predecessor tripId="t5" tl="A" foes="t2"/>
    </railSignalConstraints>
</additional>
