<?xml version="1.0" encoding="UTF-8"?>

<!-- generated on Thu May  8 10:35:37 2014 by SUMO duarouter Version dev-SVN-r16314
<?xml version="1.0" encoding="UTF-8"?>

<configuration xmlns:xsi="http://www.w3.org/2001/XMLSchema-instance" xsi:noNamespaceSchemaLocation="http://sumo.dlr.de/xsd/duarouterConfiguration.xsd">

    <input>
        <net-file value="input_net.net.xml"/>
        <flow-files value="input_flows.flows.xml"/>
    </input>

    <output>
        <output-file value="routes.rou.xml"/>
    </output>

    <report>
        <xml-validation value="never"/>
        <no-step-log value="true"/>
    </report>

</configuration>
-->

<routes xmlns:xsi="http://www.w3.org/2001/XMLSchema-instance" xsi:noNamespaceSchemaLocation="http://sumo.dlr.de/xsd/routes_file.xsd">
    <vehicle id="0.0" depart="0.00">
        <routeDistribution last="0">
            <route cost="126.34" probability="1.00000000" edges="beg beg2left left left2end end rend"/>
        </routeDistribution>
    </vehicle>
    <vehicle id="0.1" depart="0.10">
        <routeDistribution last="0">
            <route cost="126.34" probability="1.00000000" edges="beg beg2left left left2end end rend"/>
        </routeDistribution>
    </vehicle>
    <vehicle id="0.2" depart="0.20">
        <routeDistribution last="0">
            <route cost="126.34" probability="1.00000000" edges="beg beg2left left left2end end rend"/>
        </routeDistribution>
    </vehicle>
    <vehicle id="0.3" depart="0.30">
        <routeDistribution last="0">
            <route cost="126.34" probability="1.00000000" edges="beg beg2left left left2end end rend"/>
        </routeDistribution>
    </vehicle>
    <vehicle id="0.4" depart="0.40">
        <routeDistribution last="0">
            <route cost="126.34" probability="1.00000000" edges="beg beg2left left left2end end rend"/>
        </routeDistribution>
    </vehicle>
    <vehicle id="0.5" depart="0.50">
        <routeDistribution last="0">
            <route cost="126.34" probability="1.00000000" edges="beg beg2left left left2end end rend"/>
        </routeDistribution>
    </vehicle>
    <vehicle id="0.6" depart="0.60">
        <routeDistribution last="0">
            <route cost="126.34" probability="1.00000000" edges="beg beg2left left left2end end rend"/>
        </routeDistribution>
    </vehicle>
    <vehicle id="0.7" depart="0.70">
        <routeDistribution last="0">
            <route cost="126.34" probability="1.00000000" edges="beg beg2left left left2end end rend"/>
        </routeDistribution>
    </vehicle>
    <vehicle id="0.8" depart="0.80">
        <routeDistribution last="0">
            <route cost="126.34" probability="1.00000000" edges="beg beg2left left left2end end rend"/>
        </routeDistribution>
    </vehicle>
    <vehicle id="0.9" depart="0.90">
        <routeDistribution last="0">
            <route cost="126.34" probability="1.00000000" edges="beg beg2left left left2end end rend"/>
        </routeDistribution>
    </vehicle>
</routes>
