<?xml version="1.0" encoding="UTF-8"?>

<!-- generated on Tue Feb 19 09:11:29 2019 by Eclipse SUMO netconvert Version v1_1_0+0919-80296dbfce
<configuration xmlns:xsi="http://www.w3.org/2001/XMLSchema-instance" xsi:noNamespaceSchemaLocation="http://sumo.dlr.de/xsd/netconvertConfiguration.xsd">

    <input>
        <node-files value=".\netedit\netElements\lanes\inspect\speed\input_net.nod.xml"/>
        <edge-files value=".\netedit\netElements\lanes\inspect\speed\input_net.edg.xml"/>
        <connection-files value=".\netedit\netElements\lanes\inspect\speed\input_net.con.xml"/>
    </input>

    <output>
        <output-file value=".\netedit\netElements\lanes\inspect\speed\input_net.net.xml"/>
    </output>

    <report>
        <verbose value="true"/>
    </report>

</configuration>
-->

<net version="1.1" junctionCornerDetail="5" limitTurnSpeed="5.50" xmlns:xsi="http://www.w3.org/2001/XMLSchema-instance" xsi:noNamespaceSchemaLocation="http://sumo.dlr.de/xsd/net_file.xsd">

    <location netOffset="25.00,0.00" convBoundary="0.00,0.00,50.00,20.00" origBoundary="-10000000000.00,-10000000000.00,10000000000.00,10000000000.00" projParameter="!"/>

    <edge id=":gneJ0_0" function="internal">
        <lane id=":gneJ0_0_0" index="0" speed="6.08" length="7.74" shape="-1.60,3.20 -1.30,1.10 -0.40,-0.40 1.10,-1.30 3.20,-1.60"/>
    </edge>
    <edge id=":gneJ0_1" function="internal">
        <lane id=":gneJ0_1_0" index="0" speed="3.90" length="2.58" shape="3.20,1.60 2.50,1.70 2.00,2.00 1.70,2.50 1.60,3.20"/>
    </edge>
    <edge id=":gneJ0_2" function="internal">
        <lane id=":gneJ0_2_0" index="0" speed="3.65" length="2.08" shape="3.20,1.60 2.00,0.80 1.71,0.23"/>
    </edge>
    <edge id=":gneJ0_3" function="internal">
        <lane id=":gneJ0_3_0" index="0" speed="3.65" length="2.59" shape="1.71,0.23 1.60,-0.00 2.00,-0.80 3.20,-1.60"/>
    </edge>
    <edge id=":gneJ1_0" function="internal">
        <lane id=":gneJ1_0_0" index="0" speed="3.90" length="2.58" shape="48.40,3.20 48.30,2.50 48.00,2.00 47.50,1.70 46.80,1.60"/>
    </edge>
    <edge id=":gneJ1_1" function="internal">
        <lane id=":gneJ1_1_0" index="0" speed="6.08" length="7.74" shape="46.80,-1.60 48.90,-1.30 50.40,-0.40 51.30,1.10 51.60,3.20"/>
    </edge>
    <edge id=":gneJ1_2" function="internal">
        <lane id=":gneJ1_2_0" index="0" speed="3.65" length="2.66" shape="46.80,-1.60 48.00,-0.80 48.40,0.00 48.26,0.29"/>
    </edge>
    <edge id=":gneJ1_3" function="internal">
        <lane id=":gneJ1_3_0" index="0" speed="3.65" length="2.01" shape="48.26,0.29 48.00,0.80 46.80,1.60"/>
    </edge>
    <edge id=":gneJ2_0" function="internal">
        <lane id=":gneJ2_0_0" index="0" speed="9.32" length="19.63" shape="7.20,24.80 3.35,23.85 0.60,21.00 -1.05,16.25 -1.60,9.60"/>
    </edge>
    <edge id=":gneJ2_1" function="internal">
        <lane id=":gneJ2_1_0" index="0" speed="3.65" length="4.67" shape="7.20,21.60 6.00,20.80 5.60,20.00 6.00,19.20 7.20,18.40"/>
    </edge>
    <edge id=":gneJ2_2" function="internal">
        <lane id=":gneJ2_2_0" index="0" speed="6.51" length="9.03" shape="1.60,9.60 1.95,12.05 3.00,13.80 4.75,14.85 7.20,15.20"/>
    </edge>
    <edge id=":gneJ2_3" function="internal">
        <lane id=":gneJ2_3_0" index="0" speed="7.33" length="11.73" shape="1.60,9.60 1.95,13.45 3.00,16.20 4.75,17.85 7.20,18.40"/>
    </edge>
    <edge id=":gneJ3_0" function="internal">
        <lane id=":gneJ3_0_0" index="0" speed="9.32" length="19.63" shape="51.60,9.60 51.05,16.25 49.40,21.00 46.65,23.85 42.80,24.80"/>
    </edge>
    <edge id=":gneJ3_1" function="internal">
        <lane id=":gneJ3_1_0" index="0" speed="8.67" length="16.85" shape="51.60,9.60 51.05,14.85 49.40,18.60 46.65,20.85 42.80,21.60"/>
    </edge>
    <edge id=":gneJ3_2" function="internal">
        <lane id=":gneJ3_2_0" index="0" speed="6.51" length="9.03" shape="42.80,15.20 45.25,14.85 47.00,13.80 48.05,12.05 48.40,9.60"/>
    </edge>
    <edge id=":gneJ3_3" function="internal">
        <lane id=":gneJ3_3_0" index="0" speed="3.65" length="4.67" shape="42.80,18.40 44.00,19.20 44.40,20.00 44.00,20.80 42.80,21.60"/>
    </edge>

    <edge id="gneE0" from="gneJ0" to="gneJ1" priority="1">
        <lane id="gneE0_0" index="0" speed="13.89" length="43.60" shape="3.20,-1.60 46.80,-1.60"/>
    </edge>
    <edge id="gneE1" from="gneJ1" to="gneJ0" priority="1">
        <lane id="gneE1_0" index="0" speed="13.89" length="43.60" shape="46.80,1.60 3.20,1.60"/>
    </edge>
    <edge id="gneE2" from="gneJ2" to="gneJ3" priority="1">
        <lane id="gneE2_0" index="0" speed="13.89" length="35.60" shape="7.20,15.20 42.80,15.20"/>
        <lane id="gneE2_1" index="1" speed="13.89" length="35.60" shape="7.20,18.40 42.80,18.40"/>
    </edge>
    <edge id="gneE3" from="gneJ3" to="gneJ2" priority="1">
        <lane id="gneE3_0" index="0" speed="13.89" length="35.60" shape="42.80,24.80 7.20,24.80"/>
        <lane id="gneE3_1" index="1" speed="13.89" length="35.60" shape="42.80,21.60 7.20,21.60"/>
    </edge>
    <edge id="gneE4" from="gneJ3" to="gneJ1" priority="1">
        <lane id="gneE4_0" index="0" speed="13.89" length="6.40" shape="48.40,9.60 48.40,3.20"/>
    </edge>
    <edge id="gneE5" from="gneJ1" to="gneJ3" priority="1">
        <lane id="gneE5_0" index="0" speed="13.89" length="6.40" shape="51.60,3.20 51.60,9.60"/>
    </edge>
    <edge id="gneE8" from="gneJ2" to="gneJ0" priority="1">
        <lane id="gneE8_0" index="0" speed="13.89" length="6.40" shape="-1.60,9.60 -1.60,3.20"/>
    </edge>
    <edge id="gneE9" from="gneJ0" to="gneJ2" priority="1">
        <lane id="gneE9_0" index="0" speed="13.89" length="6.40" shape="1.60,3.20 1.60,9.60"/>
    </edge>

    <junction id="gneJ0" type="priority" x="0.00" y="0.00" incLanes="gneE8_0 gneE1_0" intLanes=":gneJ0_0_0 :gneJ0_1_0 :gneJ0_3_0" shape="-3.20,3.20 3.20,3.20 3.20,-3.20 -0.36,-2.49 -1.60,-1.60 -2.49,-0.36 -3.02,1.24">
        <request index="0" response="000" foes="100" cont="0"/>
        <request index="1" response="000" foes="000" cont="0"/>
        <request index="2" response="001" foes="001" cont="1"/>
    </junction>
    <junction id="gneJ1" type="priority" x="50.00" y="0.00" incLanes="gneE4_0 gneE0_0" intLanes=":gneJ1_0_0 :gneJ1_1_0 :gneJ1_3_0" shape="46.80,3.20 53.20,3.20 52.49,-0.36 51.60,-1.60 50.36,-2.49 48.76,-3.02 46.80,-3.20">
        <request index="0" response="000" foes="100" cont="0"/>
        <request index="1" response="000" foes="000" cont="0"/>
        <request index="2" response="001" foes="001" cont="1"/>
    </junction>
    <junction id="gneJ2" type="priority" x="0.00" y="20.00" incLanes="gneE3_0 gneE3_1 gneE9_0" intLanes=":gneJ2_0_0 :gneJ2_1_0 :gneJ2_2_0 :gneJ2_3_0" shape="7.20,26.40 7.20,13.60 4.98,13.16 4.20,12.60 3.64,11.82 3.31,10.82 3.20,9.60 -3.20,9.60 -2.91,14.73 -2.04,18.93 -0.60,22.20 1.42,24.53 4.02,25.93">
        <request index="0" response="0000" foes="0000" cont="0"/>
        <request index="1" response="1100" foes="1100" cont="0"/>
        <request index="2" response="0000" foes="0010" cont="0"/>
        <request index="3" response="0000" foes="0010" cont="0"/>
    </junction>
    <junction id="gneJ3" type="priority" x="50.00" y="20.00" incLanes="gneE5_0 gneE2_0 gneE2_1" intLanes=":gneJ3_0_0 :gneJ3_1_0 :gneJ3_2_0 :gneJ3_3_0" shape="53.20,9.60 46.80,9.60 46.36,11.82 45.80,12.60 45.02,13.16 44.02,13.49 42.80,13.60 42.80,26.40 45.98,25.93 48.58,24.53 50.60,22.20 52.04,18.93 52.91,14.73">
        <request index="0" response="0000" foes="1000" cont="0"/>
        <request index="1" response="0000" foes="1000" cont="0"/>
        <request index="2" response="0000" foes="0000" cont="0"/>
        <request index="3" response="0011" foes="0011" cont="0"/>
    </junction>

    <junction id=":gneJ0_3_0" type="internal" x="1.71" y="0.23" incLanes=":gneJ0_2_0 gneE8_0" intLanes=":gneJ0_0_0"/>
    <junction id=":gneJ1_3_0" type="internal" x="48.26" y="0.29" incLanes=":gneJ1_2_0 gneE4_0" intLanes=":gneJ1_0_0"/>

    <connection from="gneE0" to="gneE5" fromLane="0" toLane="0" via=":gneJ1_1_0" dir="l" state="M"/>
    <connection from="gneE0" to="gneE1" fromLane="0" toLane="0" via=":gneJ1_2_0" dir="t" state="m"/>
    <connection from="gneE1" to="gneE9" fromLane="0" toLane="0" via=":gneJ0_1_0" dir="r" state="M"/>
    <connection from="gneE1" to="gneE0" fromLane="0" toLane="0" via=":gneJ0_2_0" dir="t" state="m"/>
    <connection from="gneE2" to="gneE4" fromLane="0" toLane="0" via=":gneJ3_2_0" dir="r" state="M"/>
    <connection from="gneE2" to="gneE3" fromLane="1" toLane="1" via=":gneJ3_3_0" dir="t" state="m"/>
    <connection from="gneE3" to="gneE8" fromLane="0" toLane="0" via=":gneJ2_0_0" dir="l" state="M"/>
    <connection from="gneE3" to="gneE2" fromLane="1" toLane="1" via=":gneJ2_1_0" dir="t" state="m"/>
    <connection from="gneE4" to="gneE1" fromLane="0" toLane="0" via=":gneJ1_0_0" dir="r" state="M"/>
    <connection from="gneE5" to="gneE3" fromLane="0" toLane="0" via=":gneJ3_0_0" dir="l" state="M"/>
    <connection from="gneE5" to="gneE3" fromLane="0" toLane="1" via=":gneJ3_1_0" dir="l" state="M"/>
    <connection from="gneE8" to="gneE0" fromLane="0" toLane="0" via=":gneJ0_0_0" dir="l" state="M"/>
    <connection from="gneE9" to="gneE2" fromLane="0" toLane="0" via=":gneJ2_2_0" dir="r" state="M"/>
    <connection from="gneE9" to="gneE2" fromLane="0" toLane="1" via=":gneJ2_3_0" dir="r" state="M"/>

    <connection from=":gneJ0_0" to="gneE0" fromLane="0" toLane="0" dir="l" state="M"/>
    <connection from=":gneJ0_1" to="gneE9" fromLane="0" toLane="0" dir="r" state="M"/>
    <connection from=":gneJ0_2" to="gneE0" fromLane="0" toLane="0" via=":gneJ0_3_0" dir="t" state="m"/>
    <connection from=":gneJ0_3" to="gneE0" fromLane="0" toLane="0" dir="t" state="M"/>
    <connection from=":gneJ1_0" to="gneE1" fromLane="0" toLane="0" dir="r" state="M"/>
    <connection from=":gneJ1_1" to="gneE5" fromLane="0" toLane="0" dir="l" state="M"/>
    <connection from=":gneJ1_2" to="gneE1" fromLane="0" toLane="0" via=":gneJ1_3_0" dir="t" state="m"/>
    <connection from=":gneJ1_3" to="gneE1" fromLane="0" toLane="0" dir="t" state="M"/>
    <connection from=":gneJ2_0" to="gneE8" fromLane="0" toLane="0" dir="l" state="M"/>
    <connection from=":gneJ2_1" to="gneE2" fromLane="0" toLane="1" dir="t" state="M"/>
    <connection from=":gneJ2_2" to="gneE2" fromLane="0" toLane="0" dir="r" state="M"/>
    <connection from=":gneJ2_3" to="gneE2" fromLane="0" toLane="1" dir="r" state="M"/>
    <connection from=":gneJ3_0" to="gneE3" fromLane="0" toLane="0" dir="l" state="M"/>
    <connection from=":gneJ3_1" to="gneE3" fromLane="0" toLane="1" dir="l" state="M"/>
    <connection from=":gneJ3_2" to="gneE4" fromLane="0" toLane="0" dir="r" state="M"/>
    <connection from=":gneJ3_3" to="gneE3" fromLane="0" toLane="1" dir="t" state="M"/>

</net>
