<?xml version="1.0" encoding="UTF-8"?>

<!-- generated on 29.08.2018 18:36:56 by Eclipse SUMO netedit Version b980bbd93f
<configuration xmlns:xsi="http://www.w3.org/2001/XMLSchema-instance" xsi:noNamespaceSchemaLocation="http://sumo.dlr.de/xsd/netconvertConfiguration.xsd">

    <input>
        <sumo-net-file value="C:/Users/SUMO-Test/.texttest/tmp/netedit.gui.29Aug160917.2476/netedit.gui/additionalElements/detentry/inspect_selection_generic\input_net.net.xml"/>
    </input>

    <output>
        <output-file value="C:/Users/SUMO-Test/.texttest/tmp/netedit.gui.29Aug160917.2476/netedit.gui/additionalElements/detentry/inspect_selection_generic\net.net.xml"/>
    </output>

    <processing>
        <offset.disable-normalization value="true"/>
        <lefthand value="false"/>
    </processing>

    <junctions>
        <no-turnarounds value="true"/>
        <junctions.corner-detail value="5"/>
        <junctions.limit-turn-speed value="-1"/>
        <rectangular-lane-cut value="false"/>
    </junctions>

    <pedestrian>
        <walkingareas value="false"/>
    </pedestrian>

    <netedit>
        <sumo-additionals-file value="C:/Users/SUMO-Test/.texttest/tmp/netedit.gui.29Aug160917.2476/netedit.gui/additionalElements/detentry/inspect_selection_generic\input_additionals.add.xml"/>
        <additionals-output value="C:/Users/SUMO-Test/.texttest/tmp/netedit.gui.29Aug160917.2476/netedit.gui/additionalElements/detentry/inspect_selection_generic\additionals.xml"/>
        <shapes-output value="C:/Users/SUMO-Test/.texttest/tmp/netedit.gui.29Aug160917.2476/netedit.gui/additionalElements/detentry/inspect_selection_generic\shapes.xml"/>
    </netedit>

    <visualisation>
        <gui-settings-file value="C:/Users/SUMO-Test/.texttest/tmp/netedit.gui.29Aug160917.2476/netedit.gui/additionalElements/detentry/inspect_selection_generic\gui-settings.xml"/>
        <window-size value="700,500"/>
        <window-pos value="50,50"/>
        <gui-testing value="true"/>
        <gui-testing-debug value="true"/>
        <gui-testing-debug-gl value="true"/>
    </visualisation>

    <report>
        <no-warnings value="true"/>
        <error-log value="C:/Users/SUMO-Test/.texttest/tmp/netedit.gui.29Aug160917.2476/netedit.gui/additionalElements/detentry/inspect_selection_generic\log.txt"/>
    </report>

</configuration>
-->

<additional xmlns:xsi="http://www.w3.org/2001/XMLSchema-instance" xsi:noNamespaceSchemaLocation="http://sumo.dlr.de/xsd/additional_file.xsd">
    <e3Detector id="E3_0" pos="7.50,3.00" freq="100.00" file="e3Detector_0.txt">
        <detEntry lane="gneE0_0" pos="10.00">
            <param key="keyFinal1" value="value1"/>
            <param key="keyFinal2" value="value2"/>
            <param key="keyFinal3" value="value3"/>
        </detEntry>
        <detExit lane="gneE0_0" pos="15.00"/>
    </e3Detector>
    <e3Detector id="E3_1" pos="17.50,3.00" freq="100.00" file="e3Detector_0.txt">
        <detEntry lane="gneE0_0" pos="20.00">
            <param key="keyFinal1" value="value1"/>
            <param key="keyFinal2" value="value2"/>
            <param key="keyFinal3" value="value3"/>
        </detEntry>
        <detExit lane="gneE0_0" pos="25.00"/>
    </e3Detector>
</additional>
