# Generated on Fri Oct  6 17:26:53 2017 by SUMO netconvert Version dev-SVN-r26359
# Format matches Extraction version: V6.5 
# <?xml version="1.0" encoding="UTF-8"?>
# 
# <configuration xmlns:xsi="http://www.w3.org/2001/XMLSchema-instance" xsi:noNamespaceSchemaLocation="http://sumo.dlr.de/xsd/netconvertConfiguration.xsd">
# 
#     <input>
#         <node-files value="input_plain.nod.xml"/>
#         <edge-files value="input_plain.edg.xml"/>
#     </input>
# 
#     <output>
#         <dlr-navteq-output value="elmar_output"/>
#     </output>
# 
#     <processing>
#         <osm.all-attributes value="true"/>
#         <numerical-ids value="true"/>
#     </processing>
# 
#     <report>
#         <xml-validation value="never"/>
#     </report>
# 
# </configuration>
# 
#
# NODE_ID	IS_BETWEEN_NODE	amount_of_geocoordinates	x1	y1	[x2 y2  ... xn  yn]
# [xmin_region] 512.00
# [xmax_region] 7195.00
# [ymin_region] 3761.00
# [ymax_region] 5166.00
# [elements_multinode] 1
# [elements_normalnode] 2
# [xmin] 512.00
# [xmax] 7195.00
# [ymin] 3761.00
# [ymax] 5166.00
1	0	1	512.00	4032.00
2	0	1	7195.00	3761.00
3	1	1	3677.86	4994.94
