# Generated on Mon Dec  5 08:45:03 2016 by SUMO netconvert Version dev-SVN-r22185
# Format matches Extraction version: V6.5 
# <?xml version="1.0" encoding="UTF-8"?>
# 
# <configuration xmlns:xsi="http://www.w3.org/2001/XMLSchema-instance" xsi:noNamespaceSchemaLocation="http://sumo.dlr.de/xsd/netconvertConfiguration.xsd">
# 
#     <input>
#         <node-files value="input_plain.nod.xml"/>
#         <edge-files value="input_plain.edg.xml"/>
#     </input>
# 
#     <output>
#         <dlr-navteq-output value="elmar_output"/>
#     </output>
# 
#     <processing>
#         <numerical-ids value="true"/>
#     </processing>
# 
#     <report>
#         <xml-validation value="never"/>
#     </report>
# 
# </configuration>
# 
#
# NODE_ID	IS_BETWEEN_NODE	amount_of_geocoordinates	x1	y1	[x2 y2  ... xn  yn]
# [xmin_region] 512
# [xmax_region] 7195
# [ymin_region] 3761
# [ymax_region] 5166
# [elements_multinode] 1
# [elements_normalnode] 2
# [xmin] 512
# [xmax] 7195
# [ymin] 3761
# [ymax] 5166
1	0	1	512	4032
2	0	1	7195	3761
3	1	1	3681	5166
