# Generated on Tue Jan 10 11:06:04 2017 by SUMO netconvert Version dev-SVN-r22542
# Format matches Extraction version: V6.5 
# <?xml version="1.0" encoding="UTF-8"?>
# 
# <configuration xmlns:xsi="http://www.w3.org/2001/XMLSchema-instance" xsi:noNamespaceSchemaLocation="http://sumo.dlr.de/xsd/netconvertConfiguration.xsd">
# 
#     <input>
#         <node-files value="input_plain.nod.xml"/>
#         <edge-files value="input_plain.edg.xml"/>
#     </input>
# 
#     <output>
#         <dlr-navteq-output value="elmar_output"/>
#     </output>
# 
#     <processing>
#         <numerical-ids value="true"/>
#     </processing>
# 
#     <report>
#         <xml-validation value="never"/>
#     </report>
# 
# </configuration>
# 
#
#Lane connections related to LINK-IDs and NODE-ID.
#column format like pointcollection.
#NODE-ID	VEHICLE-TYPE	FROM_LANE	TO_LANE	THROUGH_TRAFFIC	LINK_IDs[2..*]
