# Generated on Mon Dec  5 12:43:37 2016 by SUMO netconvert Version dev-SVN-r22185
# Format matches Extraction version: V6.5 
# <?xml version="1.0" encoding="UTF-8"?>
# 
# <configuration xmlns:xsi="http://www.w3.org/2001/XMLSchema-instance" xsi:noNamespaceSchemaLocation="http://sumo.dlr.de/xsd/netconvertConfiguration.xsd">
# 
#     <input>
#         <node-files value="input_plain.nod.xml"/>
#         <edge-files value="input_plain.edg.xml"/>
#     </input>
# 
#     <output>
#         <dlr-navteq-output value="elmar_output"/>
#     </output>
# 
#     <processing>
#         <numerical-ids value="true"/>
#     </processing>
# 
#     <report>
#         <xml-validation value="never"/>
#     </report>
# 
# </configuration>
# 
#
# LINK_ID	NODE_ID_FROM	NODE_ID_TO	BETWEEN_NODE_ID	LENGTH	VEHICLE_TYPE	FORM_OF_WAY	BRUNNEL_TYPE	FUNCTIONAL_ROAD_CLASS	SPEED_CATEGORY	NUMBER_OF_LANES	SPEED_LIMIT	SPEED_RESTRICTION	NAME_ID1_REGIONAL	NAME_ID2_LOCAL	HOUSENUMBERS_RIGHT	HOUSENUMBERS_LEFT	ZIP_CODE	AREA_ID	SUBAREA_ID	THROUGH_TRAFFIC	SPECIAL_RESTRICTIONS	EXTENDED_NUMBER_OF_LANES	ISRAMP	CONNECTION
1	1	2	3	71.50	100000000000	3	-1	3	6	11	50	50	-1	-1	-1	-1	-1	-1	-1	1	-1	-1	-1	0	
