<?xml version="1.0"?>

<!-- generated on 08/13/10 09:47:09 by SUMO netconvert Version dev-SVN-r8487
<configuration>

    <input>
        <xml-node-files value="input_nodes.nod.xml"/>
        <xml-edge-files value="input_edges.edg.xml"/>
    </input>

    <processing>
        <speed-in-kmh value="true"/>
        <no-turnarounds value="true"/>
    </processing>

</configuration>
-->

<net>

   <location netOffset="50.00,50.00" convBoundary="0.00,0.00,100.00,100.00" origBoundary="-50.00,-50.00,50.00,50.00" projParameter="!"/>

   <edge id=":0_0" function="internal">
      <lane id=":0_0_0" depart="0" maxspeed="12.50" length="5.00" shape="54.75,51.65 53.39,51.84 52.43,52.42 51.84,53.39 51.65,54.75"/>
   </edge>
   <edge id=":0_1" function="internal">
      <lane id=":0_1_0" depart="0" maxspeed="12.50" length="5.00" shape="51.65,45.25 51.84,46.61 52.42,47.57 53.39,48.16 54.75,48.35"/>
   </edge>
   <edge id=":0_2" function="internal">
      <lane id=":0_2_0" depart="0" maxspeed="15.28" length="9.50" shape="51.65,45.25 51.65,54.75"/>
   </edge>

   <edge id="2i" from="2" to="0" priority="-1" type="" function="normal">
      <lane id="2i_0" depart="1" maxspeed="9.73" length="45.25" shape="100.00,51.65 54.75,51.65"/>
   </edge>
   <edge id="2o" from="0" to="2" priority="-1" type="" function="normal">
      <lane id="2o_0" depart="1" maxspeed="9.73" length="45.25" shape="54.75,48.35 100.00,48.35"/>
   </edge>
   <edge id="3i" from="3" to="0" priority="-1" type="" function="normal">
      <lane id="3i_0" depart="1" maxspeed="15.28" length="45.25" shape="51.65,0.00 51.65,45.25"/>
   </edge>
   <edge id="4o" from="0" to="4" priority="-1" type="" function="normal">
      <lane id="4o_0" depart="1" maxspeed="15.28" length="45.25" shape="51.65,54.75 51.65,100.00"/>
   </edge>

   <row-logic id="0" requestSize="3">
      <logicitem request="0" response="100" foes="100" cont="0"/>
      <logicitem request="1" response="000" foes="000" cont="0"/>
      <logicitem request="2" response="000" foes="001" cont="0"/>
   </row-logic>
   <row-logic id="2" requestSize="1">
      <logicitem request="0" response="1" foes="0" cont="0"/>
   </row-logic>

   <junction id="0" type="priority" x="50.00" y="50.00" incLanes="2i_0 3i_0" intLanes=":0_0_0 :0_1_0 :0_2_0" shape="50.05,54.75 53.25,54.75 54.75,53.25 54.75,46.75 53.25,45.25 50.05,45.25"/>
   <junction id="1" type="DEAD_END" x="0.00" y="50.00" incLanes="" intLanes="" shape=""/>
   <junction id="2" type="priority" x="100.00" y="50.00" incLanes="2o_0" intLanes="" shape="100.00,50.05 100.00,53.25 100.00,46.75 100.00,49.95"/>
   <junction id="3" type="DEAD_END" x="50.00" y="0.00" incLanes="" intLanes="" shape="50.05,0.00 53.25,0.00"/>
   <junction id="4" type="DEAD_END" x="50.00" y="100.00" incLanes="4o_0" intLanes="" shape="53.25,100.00 50.05,100.00"/>

   <succ edge="2i" lane="2i_0" junction="0">
      <succlane lane="4o_0" via=":0_0_0" yield="1" dir="r" state="m"/>
   </succ>
   <succ edge="2o" lane="2o_0" junction="2">
      <succlane lane="SUMO_NO_DESTINATION" yield="1" dir="s" state="O"/>
   </succ>
   <succ edge="3i" lane="3i_0" junction="0">
      <succlane lane="2o_0" via=":0_1_0" yield="0" dir="r" state="M"/>
      <succlane lane="4o_0" via=":0_2_0" yield="0" dir="s" state="M"/>
   </succ>
   <succ edge="4o" lane="4o_0" junction="4">
      <succlane lane="SUMO_NO_DESTINATION" yield="1" dir="s" state="O"/>
   </succ>

   <succ edge=":0_0" lane=":0_0_0" junction="0">
      <succlane lane="4o_0" tl="" linkno="" yield="0" dir="s" state="M"/>
   </succ>
   <succ edge=":0_1" lane=":0_1_0" junction="0">
      <succlane lane="2o_0" tl="" linkno="" yield="0" dir="s" state="M"/>
   </succ>
   <succ edge=":0_2" lane=":0_2_0" junction="0">
      <succlane lane="4o_0" tl="" linkno="" yield="0" dir="s" state="M"/>
   </succ>

</net>
