<?xml version="1.0" encoding="UTF-8"?>

<!-- generated on 2022-12-16 09:31:04.147769 by gtfs2pt.py v1_15_0+1020-699b67c5c3e
  options: -n test/osm.net.xml.gz <doubleminus>gtfs data/GTFS_VBB_Juni-Dezember-2016.zip <doubleminus>date 20160713
-->

<additional xmlns:xsi="http://www.w3.org/2001/XMLSchema-instance" xsi:noNamespaceSchemaLocation="http://sumo.dlr.de/xsd/additional_file.xsd">
    <busStop id="-4612981#1:13.00" lane="-4612981#1_0" startPos="0.00" endPos="13.00" friendlyPos="true" name="S+U Alexanderplatz Bhf (Berlin)">
        <access friendlyPos="true" lane="272757341#0_0" pos="0.06" length="1.71"/>
        <access friendlyPos="true" lane="272757341#2_0" pos="0.20" length="5.02"/>
        <access friendlyPos="true" lane="272757311_0" pos="0.00" length="5.56"/>
        <access friendlyPos="true" lane="272757341#1_0" pos="0.13" length="6.66"/>
        <access friendlyPos="true" lane="272757273_0" pos="0.00" length="7.51"/>
        <access friendlyPos="true" lane="272757271_0" pos="0.00" length="10.52"/>
        <access friendlyPos="true" lane="272757274_0" pos="9.62" length="9.25"/>
        <access friendlyPos="true" lane="272757314_0" pos="2.41" length="11.73"/>
        <access friendlyPos="true" lane="272757342#1_0" pos="10.46" length="15.24"/>
        <access friendlyPos="true" lane="272757322#0_0" pos="0.00" length="20.24"/>
    </busStop>
    <busStop id="465376243#1:13.00" lane="465376243#1_0" startPos="0.00" endPos="13.00" friendlyPos="true" name="S+U Friedrichstr. Bhf (Berlin)">
        <access friendlyPos="true" lane="254523901#1_0" pos="19.03" length="8.14"/>
        <access friendlyPos="true" lane="274524381#1_0" pos="1.57" length="19.68"/>
        <access friendlyPos="true" lane="274524381#0_0" pos="2.96" length="22.06"/>
        <access friendlyPos="true" lane="440946431_0" pos="0.00" length="23.40"/>
        <access friendlyPos="true" lane="335043665#0_0" pos="0.00" length="21.79"/>
        <access friendlyPos="true" lane="428486924_0" pos="0.00" length="22.86"/>
        <access friendlyPos="true" lane="274524361#0_0" pos="0.84" length="23.40"/>
        <access friendlyPos="true" lane="274524361#1_0" pos="0.00" length="23.94"/>
        <access friendlyPos="true" lane="254339574_0" pos="11.19" length="27.43"/>
        <access friendlyPos="true" lane="274524361#2_0" pos="0.00" length="25.53"/>
    </busStop>
    <busStop id="340498988#0:41.31" lane="340498988#0_1" startPos="28.31" endPos="41.31" friendlyPos="true" name="Unter den Linden/Friedrichstr. (Berlin)">
    </busStop>
    <busStop id="340498982#4:13.00" lane="340498982#4_0" startPos="0.00" endPos="13.00" friendlyPos="true" name="Staatsoper (Berlin)">
        <access friendlyPos="true" lane="442389818#6_0" pos="14.01" length="18.44"/>
        <access friendlyPos="true" lane="1037130735#1_0" pos="93.50" length="24.54"/>
        <access friendlyPos="true" lane="1037136888_0" pos="0.00" length="28.74"/>
        <access friendlyPos="true" lane="803471188#0_0" pos="0.20" length="30.45"/>
        <access friendlyPos="true" lane="442389818#5_0" pos="39.45" length="31.48"/>
        <access friendlyPos="true" lane="-28251222#2_0" pos="0.00" length="35.20"/>
        <access friendlyPos="true" lane="28251222#2_0" pos="1.52" length="43.07"/>
        <access friendlyPos="true" lane="1037130735#2_0" pos="0.00" length="35.83"/>
        <access friendlyPos="true" lane="-28251222#1_0" pos="0.00" length="41.33"/>
        <access friendlyPos="true" lane="28251222#1_0" pos="97.16" length="48.07"/>
    </busStop>
    <busStop id="23121445#5:17.36" lane="23121445#5_1" startPos="4.36" endPos="17.36" friendlyPos="true" name="Lustgarten (Berlin)">
    </busStop>
    <busStop id="202156994#0:75.72" lane="202156994#0_0" startPos="62.93" endPos="75.72" friendlyPos="true" name="Spandauer Str./Marienkirche (Berlin)">
        <access friendlyPos="true" lane="375901768#0_0" pos="0.20" length="42.90"/>
        <access friendlyPos="true" lane="24913519#1_0" pos="0.00" length="37.06"/>
        <access friendlyPos="true" lane="375901784_0" pos="8.73" length="37.63"/>
        <access friendlyPos="true" lane="375901768#2_0" pos="0.00" length="38.96"/>
        <access friendlyPos="true" lane="375901774#2_0" pos="0.00" length="38.43"/>
        <access friendlyPos="true" lane="375901769#1_0" pos="0.20" length="50.06"/>
        <access friendlyPos="true" lane="171826987#1_0" pos="0.20" length="44.52"/>
        <access friendlyPos="true" lane="171826987#2_0" pos="0.20" length="44.52"/>
        <access friendlyPos="true" lane="375901779#1_0" pos="0.19" length="44.46"/>
        <access friendlyPos="true" lane="375901779#2_0" pos="0.20" length="44.03"/>
    </busStop>
    <busStop id="1113401735#1:62.07" lane="1113401735#1_1" startPos="49.07" endPos="62.07" friendlyPos="true" name="S+U Alexanderplatz Bhf/Memhardstr. (Berlin)">
    </busStop>
    <busStop id="340498982#1:93.30" lane="340498982#1_0" startPos="80.30" endPos="93.30" friendlyPos="true" name="Staatsoper (Berlin)">
        <access friendlyPos="true" lane="442389818#6_0" pos="14.01" length="18.44"/>
        <access friendlyPos="true" lane="1037130735#1_0" pos="93.50" length="24.54"/>
        <access friendlyPos="true" lane="1037136888_0" pos="0.00" length="28.74"/>
        <access friendlyPos="true" lane="803471188#0_0" pos="0.20" length="30.45"/>
        <access friendlyPos="true" lane="442389818#5_0" pos="39.45" length="31.48"/>
        <access friendlyPos="true" lane="-28251222#2_0" pos="0.00" length="35.20"/>
        <access friendlyPos="true" lane="28251222#2_0" pos="1.52" length="43.07"/>
        <access friendlyPos="true" lane="1037130735#2_0" pos="0.00" length="35.83"/>
        <access friendlyPos="true" lane="-28251222#1_0" pos="0.00" length="41.33"/>
        <access friendlyPos="true" lane="28251222#1_0" pos="97.16" length="48.07"/>
    </busStop>
    <busStop id="194069450#0:57.59" lane="194069450#0_1" startPos="44.60" endPos="57.59" friendlyPos="true" name="Unter den Linden/Friedrichstr. (Berlin)">
    </busStop>
    <busStop id="-169717723#2:44.48" lane="-169717723#2_0" startPos="31.50" endPos="44.48" friendlyPos="true" name="Torstr./U Oranienburger Tor (Berlin)">
        <access friendlyPos="true" lane="374734397#1_0" pos="45.64" length="2.16"/>
        <access friendlyPos="true" lane="1068129616#0_0" pos="0.20" length="3.76"/>
        <access friendlyPos="true" lane="374734397#2_0" pos="0.00" length="4.98"/>
        <access friendlyPos="true" lane="504171783#0_0" pos="0.00" length="14.65"/>
        <access friendlyPos="true" lane="1068129615#5_0" pos="2.26" length="13.94"/>
        <access friendlyPos="true" lane="1068129616#1_0" pos="0.00" length="35.76"/>
        <access friendlyPos="true" lane="504171780#0_0" pos="5.03" length="33.51"/>
        <access friendlyPos="true" lane="1069677813_0" pos="0.00" length="35.59"/>
        <access friendlyPos="true" lane="1069677814#0_0" pos="0.00" length="46.12"/>
        <access friendlyPos="true" lane="504171781#0_0" pos="0.20" length="65.72"/>
    </busStop>
    <busStop id="713576589#0:22.31" lane="713576589#0_0" startPos="9.31" endPos="22.31" friendlyPos="true" name="Tucholskystr. (Berlin)">
        <access friendlyPos="true" lane="1067958322#0_0" pos="14.51" length="27.04"/>
        <access friendlyPos="true" lane="1067958322#1_0" pos="153.86" length="36.07"/>
        <access friendlyPos="true" lane="1069997448#0_0" pos="54.48" length="104.85"/>
        <access friendlyPos="true" lane="1069997441#0_0" pos="27.19" length="117.29"/>
        <access friendlyPos="true" lane="-298746822_0" pos="47.03" length="134.66"/>
        <access friendlyPos="true" lane="1069997448#1_0" pos="0.00" length="137.14"/>
        <access friendlyPos="true" lane="298746821#1_0" pos="0.00" length="137.28"/>
    </busStop>
    <busStop id="-4613300#0:118.82" lane="-4613300#0_0" startPos="105.82" endPos="118.82" friendlyPos="true" name="U Rosa-Luxemburg-Platz (Berlin)">
    </busStop>
    <busStop id="-4613299#3:13.00" lane="-4613299#3_0" startPos="0.00" endPos="13.00" friendlyPos="true" name="Mollstr./Prenzlauer Allee (Berlin)">
        <access friendlyPos="true" lane="395223501#2_0" pos="0.20" length="3.02"/>
        <access friendlyPos="true" lane="395223501#6_0" pos="0.00" length="9.38"/>
        <access friendlyPos="true" lane="395223501#1_0" pos="0.20" length="4.61"/>
        <access friendlyPos="true" lane="321236116_0" pos="0.00" length="7.17"/>
        <access friendlyPos="true" lane="321236117_0" pos="11.48" length="12.79"/>
        <access friendlyPos="true" lane="395223501#7_0" pos="0.00" length="12.16"/>
        <access friendlyPos="true" lane="395223501#8_0" pos="0.00" length="36.85"/>
        <access friendlyPos="true" lane="319046476#1_0" pos="0.00" length="41.12"/>
        <access friendlyPos="true" lane="318882411#2_0" pos="84.93" length="39.23"/>
        <access friendlyPos="true" lane="321069345_0" pos="0.20" length="55.76"/>
    </busStop>
    <busStop id="328426208#0:43.81" lane="328426208#0_1" startPos="30.81" endPos="43.81" friendlyPos="true" name="Fischerinsel. (Berlin)">
    </busStop>
    <busStop id="-505475202#0:43.07" lane="-505475202#0_1" startPos="30.07" endPos="43.07" friendlyPos="true" name="Neumannsgasse (Berlin)">
    </busStop>
    <busStop id="-23755950#0:13.00" lane="-23755950#0_1" startPos="0.00" endPos="13.00" friendlyPos="true" name="Werderscher Markt (Berlin)">
    </busStop>
    <busStop id="-35557143#4:63.46" lane="-35557143#4_1" startPos="50.46" endPos="63.46" friendlyPos="true" name="U Französische Str. (Berlin)">
    </busStop>
    <busStop id="465376243#0:18.21" lane="465376243#0_0" startPos="5.21" endPos="18.21" friendlyPos="true" name="S+U Friedrichstr. Bhf (Berlin)">
        <access friendlyPos="true" lane="254523901#1_0" pos="19.03" length="8.14"/>
        <access friendlyPos="true" lane="274524381#1_0" pos="1.57" length="19.68"/>
        <access friendlyPos="true" lane="274524381#0_0" pos="2.96" length="22.06"/>
        <access friendlyPos="true" lane="440946431_0" pos="0.00" length="23.40"/>
        <access friendlyPos="true" lane="335043665#0_0" pos="0.00" length="21.79"/>
        <access friendlyPos="true" lane="428486924_0" pos="0.00" length="22.86"/>
        <access friendlyPos="true" lane="274524361#0_0" pos="0.84" length="23.40"/>
        <access friendlyPos="true" lane="274524361#1_0" pos="0.00" length="23.94"/>
        <access friendlyPos="true" lane="254339574_0" pos="11.19" length="27.43"/>
        <access friendlyPos="true" lane="274524361#2_0" pos="0.00" length="25.53"/>
    </busStop>
    <busStop id="1100889498:13.00" lane="1100889498_0" startPos="0.00" endPos="13.00" friendlyPos="true" name="Friedrichstr./Reinhardtstr. (Berlin)">
        <access friendlyPos="true" lane="1087301097#1_0" pos="315.51" length="4.89"/>
        <access friendlyPos="true" lane="465376251#2_0" pos="23.30" length="18.24"/>
        <access friendlyPos="true" lane="-131420077#0_0" pos="119.88" length="43.33"/>
        <access friendlyPos="true" lane="-27628628#0_0" pos="0.70" length="43.80"/>
        <access friendlyPos="true" lane="27628628#0_0" pos="0.00" length="48.36"/>
        <access friendlyPos="true" lane="465376251#1_0" pos="9.60" length="54.42"/>
        <access friendlyPos="true" lane="27628628#1_0" pos="5.61" length="48.14"/>
        <access friendlyPos="true" lane="1087301095#1_0" pos="0.00" length="68.56"/>
        <access friendlyPos="true" lane="465376250#1_0" pos="0.19" length="66.54"/>
        <access friendlyPos="true" lane="690327002#4_0" pos="0.20" length="69.26"/>
    </busStop>
    <busStop id="-176043807#4:20.24" lane="-176043807#4_1" startPos="7.24" endPos="20.24" friendlyPos="true" name="Deutsches Theater (Berlin)">
    </busStop>
    <busStop id="4592725#4:142.47" lane="4592725#4_1" startPos="129.47" endPos="142.47" friendlyPos="true" name="Schumannstr. (Berlin)">
    </busStop>
    <busStop id="176043807#1:30.78" lane="176043807#1_1" startPos="17.78" endPos="30.78" friendlyPos="true" name="Deutsches Theater (Berlin)">
    </busStop>
    <busStop id="-1100824590:87.20" lane="-1100824590_0" startPos="74.20" endPos="87.20" friendlyPos="true" name="Friedrichstr./Reinhardtstr. (Berlin)">
        <access friendlyPos="true" lane="1087301097#1_0" pos="315.51" length="4.89"/>
        <access friendlyPos="true" lane="465376251#2_0" pos="23.30" length="18.24"/>
        <access friendlyPos="true" lane="-131420077#0_0" pos="119.88" length="43.33"/>
        <access friendlyPos="true" lane="-27628628#0_0" pos="0.70" length="43.80"/>
        <access friendlyPos="true" lane="27628628#0_0" pos="0.00" length="48.36"/>
        <access friendlyPos="true" lane="465376251#1_0" pos="9.60" length="54.42"/>
        <access friendlyPos="true" lane="27628628#1_0" pos="5.61" length="48.14"/>
        <access friendlyPos="true" lane="1087301095#1_0" pos="0.00" length="68.56"/>
        <access friendlyPos="true" lane="465376250#1_0" pos="0.19" length="66.54"/>
        <access friendlyPos="true" lane="690327002#4_0" pos="0.20" length="69.26"/>
    </busStop>
    <busStop id="-194069450#1:13.00" lane="-194069450#1_1" startPos="0.00" endPos="13.00" friendlyPos="true" name="Unter den Linden/Friedrichstr. (Berlin)">
    </busStop>
    <busStop id="35557143#1:46.77" lane="35557143#1_1" startPos="33.77" endPos="46.77" friendlyPos="true" name="U Französische Str. (Berlin)">
    </busStop>
    <busStop id="23755950#0:34.07" lane="23755950#0_1" startPos="21.07" endPos="34.07" friendlyPos="true" name="Werderscher Markt (Berlin)">
    </busStop>
    <busStop id="-111251382#3:13.00" lane="-111251382#3_0" startPos="0.00" endPos="13.00" friendlyPos="true" name="Friedrichstr./Reinhardtstr. (Berlin)">
        <access friendlyPos="true" lane="1087301097#1_0" pos="315.51" length="4.89"/>
        <access friendlyPos="true" lane="465376251#2_0" pos="23.30" length="18.24"/>
        <access friendlyPos="true" lane="-131420077#0_0" pos="119.88" length="43.33"/>
        <access friendlyPos="true" lane="-27628628#0_0" pos="0.70" length="43.80"/>
        <access friendlyPos="true" lane="27628628#0_0" pos="0.00" length="48.36"/>
        <access friendlyPos="true" lane="465376251#1_0" pos="9.60" length="54.42"/>
        <access friendlyPos="true" lane="27628628#1_0" pos="5.61" length="48.14"/>
        <access friendlyPos="true" lane="1087301095#1_0" pos="0.00" length="68.56"/>
        <access friendlyPos="true" lane="465376250#1_0" pos="0.19" length="66.54"/>
        <access friendlyPos="true" lane="690327002#4_0" pos="0.20" length="69.26"/>
    </busStop>
    <busStop id="-195430954#0:38.55" lane="-195430954#0_1" startPos="25.55" endPos="38.55" friendlyPos="true" name="U Märkisches Museum/Inselstr. (Berlin)">
    </busStop>
    <busStop id="-83510030:13.00" lane="-83510030_1" startPos="0.00" endPos="13.00" friendlyPos="true" name="U Heinrich-Heine-Str. (Berlin)">
    </busStop>
    <busStop id="216524084:13.00" lane="216524084_1" startPos="0.00" endPos="13.00" friendlyPos="true" name="U Märkisches Museum (Berlin)">
    </busStop>
    <busStop id="4402037:13.00" lane="4402037_1" startPos="0.00" endPos="13.00" friendlyPos="true" name="S+U Brandenburger Tor/Glinkastr. (Berlin)">
    </busStop>
    <busStop id="24914109:6.33" lane="24914109_0" startPos="0.00" endPos="6.33" friendlyPos="true" name="Mollstr./Prenzlauer Allee (Berlin)">
        <access friendlyPos="true" lane="395223501#2_0" pos="0.20" length="3.02"/>
        <access friendlyPos="true" lane="395223501#6_0" pos="0.00" length="9.38"/>
        <access friendlyPos="true" lane="395223501#1_0" pos="0.20" length="4.61"/>
        <access friendlyPos="true" lane="321236116_0" pos="0.00" length="7.17"/>
        <access friendlyPos="true" lane="321236117_0" pos="11.48" length="12.79"/>
        <access friendlyPos="true" lane="395223501#7_0" pos="0.00" length="12.16"/>
        <access friendlyPos="true" lane="395223501#8_0" pos="0.00" length="36.85"/>
        <access friendlyPos="true" lane="319046476#1_0" pos="0.00" length="41.12"/>
        <access friendlyPos="true" lane="318882411#2_0" pos="84.93" length="39.23"/>
        <access friendlyPos="true" lane="321069345_0" pos="0.20" length="55.76"/>
    </busStop>
    <busStop id="1110751835#1:13.00" lane="1110751835#1_1" startPos="0.00" endPos="13.00" friendlyPos="true" name="U Mohrenstr. (Berlin)">
    </busStop>
    <busStop id="-23755739#2:30.74" lane="-23755739#2_1" startPos="17.74" endPos="30.74" friendlyPos="true" name="Behrenstr./Wilhelmstr. (Berlin)">
    </busStop>
    <busStop id="1101404246#1:13.00" lane="1101404246#1_0" startPos="0.00" endPos="13.00" friendlyPos="true" name="Mollstr./Prenzlauer Allee (Berlin)">
        <access friendlyPos="true" lane="395223501#2_0" pos="0.20" length="3.02"/>
        <access friendlyPos="true" lane="395223501#6_0" pos="0.00" length="9.38"/>
        <access friendlyPos="true" lane="395223501#1_0" pos="0.20" length="4.61"/>
        <access friendlyPos="true" lane="321236116_0" pos="0.00" length="7.17"/>
        <access friendlyPos="true" lane="321236117_0" pos="11.48" length="12.79"/>
        <access friendlyPos="true" lane="395223501#7_0" pos="0.00" length="12.16"/>
        <access friendlyPos="true" lane="395223501#8_0" pos="0.00" length="36.85"/>
        <access friendlyPos="true" lane="319046476#1_0" pos="0.00" length="41.12"/>
        <access friendlyPos="true" lane="318882411#2_0" pos="84.93" length="39.23"/>
        <access friendlyPos="true" lane="321069345_0" pos="0.20" length="55.76"/>
    </busStop>
    <busStop id="112128419#2:13.00" lane="112128419#2_0" startPos="0.00" endPos="13.00" friendlyPos="true" name="S+U Alexanderplatz Bhf/Memhardstr. (Berlin)">
        <access friendlyPos="true" lane="1113401735#1_0" pos="62.07" length="1.52"/>
        <access friendlyPos="true" lane="139877314#1_0" pos="0.00" length="24.68"/>
        <access friendlyPos="true" lane="171829099#5_0" pos="0.20" length="20.72"/>
        <access friendlyPos="true" lane="171829099#6_0" pos="0.00" length="24.36"/>
        <access friendlyPos="true" lane="171829092_0" pos="0.00" length="25.13"/>
        <access friendlyPos="true" lane="171829099#4_0" pos="0.20" length="22.42"/>
        <access friendlyPos="true" lane="171829099#2_0" pos="0.20" length="28.25"/>
        <access friendlyPos="true" lane="171829093_0" pos="0.00" length="31.62"/>
        <access friendlyPos="true" lane="171829099#1_0" pos="0.21" length="30.14"/>
        <access friendlyPos="true" lane="171829099#0_0" pos="0.52" length="44.79"/>
    </busStop>
    <busStop id="195401013#2:74.69" lane="195401013#2_0" startPos="61.69" endPos="74.69" friendlyPos="true" name="S+U Alexanderplatz (Bln) [Bus K.-Liebknecht-Str]">
        <access friendlyPos="true" lane="171826984#2_0" pos="206.45" length="0.13"/>
        <access friendlyPos="true" lane="312392974#5_0" pos="34.52" length="21.00"/>
        <access friendlyPos="true" lane="1079045029#3_0" pos="30.88" length="33.68"/>
        <access friendlyPos="true" lane="687787219_0" pos="1.17" length="59.87"/>
        <access friendlyPos="true" lane="312392974#4_0" pos="0.24" length="62.87"/>
        <access friendlyPos="true" lane="1079045027#1_0" pos="48.92" length="62.54"/>
        <access friendlyPos="true" lane="1079045029#2_0" pos="7.51" length="63.49"/>
        <access friendlyPos="true" lane="312392974#3_0" pos="42.51" length="70.90"/>
        <access friendlyPos="true" lane="312392973_0" pos="40.69" length="70.41"/>
        <access friendlyPos="true" lane="1079045029#1_0" pos="19.58" length="80.01"/>
    </busStop>
    <busStop id="24913519#1:13.00" lane="24913519#1_1" startPos="0.00" endPos="13.00" friendlyPos="true" name="Spandauer Str./Marienkirche (Berlin)">
    </busStop>
    <busStop id="4773464#0:13.00" lane="4773464#0_1" startPos="0.00" endPos="13.00" friendlyPos="true" name="U Spittelmarkt (Berlin)">
    </busStop>
    <busStop id="23851917#1:13.00" lane="23851917#1_1" startPos="0.00" endPos="13.00" friendlyPos="true" name="Fischerinsel (Berlin)">
    </busStop>
    <busStop id="29311581#0:13.00" lane="29311581#0_1" startPos="0.00" endPos="13.00" friendlyPos="true" name="S+U Jannowitzbrücke (Berlin)">
    </busStop>
    <busStop id="194962398#1:98.05" lane="194962398#1_0" startPos="85.05" endPos="98.05" friendlyPos="true" name="Alexanderstr. (Berlin)">
        <access friendlyPos="true" lane="380636480#0_0" pos="232.03" length="11.97"/>
        <access friendlyPos="true" lane="830728710#0_0" pos="14.59" length="36.53"/>
        <access friendlyPos="true" lane="380636480#1_0" pos="0.00" length="46.60"/>
        <access friendlyPos="true" lane="473081308#0_0" pos="0.00" length="47.77"/>
        <access friendlyPos="true" lane="-194962398#2_0" pos="0.00" length="60.66"/>
        <access friendlyPos="true" lane="473081308#1_0" pos="0.00" length="61.17"/>
        <access friendlyPos="true" lane="334070743#0_0" pos="0.20" length="74.94"/>
        <access friendlyPos="true" lane="334070743#1_0" pos="0.00" length="74.08"/>
        <access friendlyPos="true" lane="749876418#1_0" pos="33.03" length="78.08"/>
        <access friendlyPos="true" lane="334070743#2_0" pos="0.00" length="78.90"/>
    </busStop>
    <busStop id="195430954#0:17.20" lane="195430954#0_1" startPos="4.20" endPos="17.20" friendlyPos="true" name="U Märkisches Museum/Inselstr. (Berlin)">
    </busStop>
    <busStop id="694626562:44.54" lane="694626562_1" startPos="31.54" endPos="44.54" friendlyPos="true" name="U Alexanderplatz [Bus]">
    </busStop>
    <busStop id="171826985#2:70.30" lane="171826985#2_0" startPos="57.30" endPos="70.30" friendlyPos="true" name="Spandauer Str./Marienkirche (Berlin)">
        <access friendlyPos="true" lane="375901768#0_0" pos="0.20" length="42.90"/>
        <access friendlyPos="true" lane="24913519#1_0" pos="0.00" length="37.06"/>
        <access friendlyPos="true" lane="375901784_0" pos="8.73" length="37.63"/>
        <access friendlyPos="true" lane="375901768#2_0" pos="0.00" length="38.96"/>
        <access friendlyPos="true" lane="375901774#2_0" pos="0.00" length="38.43"/>
        <access friendlyPos="true" lane="375901769#1_0" pos="0.20" length="50.06"/>
        <access friendlyPos="true" lane="171826987#1_0" pos="0.20" length="44.52"/>
        <access friendlyPos="true" lane="171826987#2_0" pos="0.20" length="44.52"/>
        <access friendlyPos="true" lane="375901779#1_0" pos="0.19" length="44.46"/>
        <access friendlyPos="true" lane="375901779#2_0" pos="0.20" length="44.03"/>
    </busStop>
    <busStop id="743631784:19.25" lane="743631784_0" startPos="6.25" endPos="19.25" friendlyPos="true" name="S Hackescher Markt (Berlin)">
        <access friendlyPos="true" lane="1018271757_0" pos="3.91" length="9.31"/>
        <access friendlyPos="true" lane="377110621#0_0" pos="0.00" length="11.09"/>
        <access friendlyPos="true" lane="377110617_0" pos="2.91" length="16.51"/>
        <access friendlyPos="true" lane="377110621#1_0" pos="0.00" length="14.67"/>
        <access friendlyPos="true" lane="377110614_0" pos="0.00" length="17.62"/>
        <access friendlyPos="true" lane="377110621#2_0" pos="0.00" length="19.14"/>
        <access friendlyPos="true" lane="304514893#3_0" pos="42.95" length="16.09"/>
        <access friendlyPos="true" lane="377110615_0" pos="0.00" length="16.61"/>
        <access friendlyPos="true" lane="377110622#1_0" pos="26.24" length="24.60"/>
        <access friendlyPos="true" lane="377110622#2_0" pos="0.00" length="24.44"/>
    </busStop>
    <busStop id="72157174#1:13.00" lane="72157174#1_1" startPos="0.00" endPos="13.00" friendlyPos="true" name="Spandauer Str./Marienkirche (Berlin)">
    </busStop>
    <busStop id="24241790#2:68.57" lane="24241790#2_0" startPos="55.57" endPos="68.57" friendlyPos="true" name="U Weinmeisterstr. (Berlin)">
        <access friendlyPos="true" lane="1053278662#0_0" pos="112.84" length="6.58"/>
        <access friendlyPos="true" lane="1071210937#0_0" pos="111.09" length="14.59"/>
        <access friendlyPos="true" lane="380365962_0" pos="0.00" length="68.00"/>
        <access friendlyPos="true" lane="566154989#2_0" pos="37.48" length="80.35"/>
        <access friendlyPos="true" lane="380365953_0" pos="0.10" length="82.37"/>
        <access friendlyPos="true" lane="566154988_0" pos="31.79" length="85.16"/>
        <access friendlyPos="true" lane="380365960_0" pos="0.00" length="91.15"/>
        <access friendlyPos="true" lane="1071210938#0_0" pos="24.29" length="97.10"/>
        <access friendlyPos="true" lane="380365955_0" pos="0.00" length="101.10"/>
        <access friendlyPos="true" lane="1071210933_0" pos="0.00" length="102.53"/>
    </busStop>
    <busStop id="4613300#0:13.00" lane="4613300#0_0" startPos="0.00" endPos="13.00" friendlyPos="true" name="U Rosa-Luxemburg-Platz (Berlin)">
    </busStop>
    <busStop id="36892597#3:13.00" lane="36892597#3_0" startPos="0.00" endPos="13.00" friendlyPos="true" name="U Weinmeisterstr./Gipsstr. (Berlin)">
        <access friendlyPos="true" lane="1071076180#2_0" pos="3.25" length="7.72"/>
        <access friendlyPos="true" lane="955672359#1_0" pos="0.77" length="9.64"/>
        <access friendlyPos="true" lane="-955672359#1_0" pos="0.00" length="14.24"/>
        <access friendlyPos="true" lane="955672357_0" pos="58.19" length="15.70"/>
        <access friendlyPos="true" lane="1071076180#1_0" pos="36.53" length="20.81"/>
        <access friendlyPos="true" lane="-955672359#0_0" pos="0.00" length="18.88"/>
        <access friendlyPos="true" lane="1071210938#3_0" pos="68.08" length="14.45"/>
        <access friendlyPos="true" lane="955672360_0" pos="0.00" length="20.89"/>
        <access friendlyPos="true" lane="955672356_0" pos="0.00" length="30.57"/>
        <access friendlyPos="true" lane="380365964_0" pos="4.91" length="66.48"/>
    </busStop>
    <busStop id="24914141#8:112.42" lane="24914141#8_0" startPos="99.92" endPos="112.42" friendlyPos="true" name="Memhardstr. (Berlin)">
        <access friendlyPos="true" lane="379904842#0_0" pos="0.20" length="12.66"/>
        <access friendlyPos="true" lane="473149638#3_0" pos="0.75" length="13.95"/>
        <access friendlyPos="true" lane="473149638#2_0" pos="32.23" length="16.51"/>
        <access friendlyPos="true" lane="379904842#4_0" pos="0.00" length="46.76"/>
        <access friendlyPos="true" lane="1071049516_0" pos="0.20" length="48.33"/>
        <access friendlyPos="true" lane="1071049521#1_0" pos="0.00" length="78.45"/>
        <access friendlyPos="true" lane="379904843#1_0" pos="0.19" length="89.11"/>
        <access friendlyPos="true" lane="379904843#2_0" pos="0.19" length="87.76"/>
        <access friendlyPos="true" lane="379904843#4_0" pos="0.19" length="84.28"/>
        <access friendlyPos="true" lane="379904843#5_0" pos="0.21" length="82.99"/>
    </busStop>
    <busStop id="374734389#3:13.00" lane="374734389#3_0" startPos="0.00" endPos="13.00" friendlyPos="true" name="U Oranienburger   Tor (Berlin)">
        <access friendlyPos="true" lane="388702041#2_0" pos="26.84" length="2.97"/>
        <access friendlyPos="true" lane="1070124294_0" pos="9.96" length="7.34"/>
        <access friendlyPos="true" lane="388702039#9_0" pos="9.97" length="7.60"/>
        <access friendlyPos="true" lane="378662081_0" pos="0.00" length="17.50"/>
        <access friendlyPos="true" lane="1070124293#4_0" pos="0.20" length="18.64"/>
        <access friendlyPos="true" lane="1070124293#5_0" pos="0.00" length="19.24"/>
        <access friendlyPos="true" lane="1070124293#3_0" pos="0.20" length="19.36"/>
        <access friendlyPos="true" lane="388702041#4_0" pos="0.00" length="22.61"/>
        <access friendlyPos="true" lane="374734393#0_0" pos="0.00" length="23.63"/>
        <access friendlyPos="true" lane="1070124293#2_0" pos="0.20" length="21.60"/>
    </busStop>
    <busStop id="196850606#7:53.38" lane="196850606#7_1" startPos="40.38" endPos="53.38" friendlyPos="true" name="U Stadtmitte (Berlin)">
    </busStop>
    <busStop id="-196850606#8:29.42" lane="-196850606#8_1" startPos="16.42" endPos="29.42" friendlyPos="true" name="U Stadtmitte (Berlin)">
    </busStop>
    <busStop id="35269774#0:18.45" lane="35269774#0_0" startPos="5.45" endPos="18.45" friendlyPos="true" name="U Oranienburger   Tor (Berlin)">
        <access friendlyPos="true" lane="388702041#2_0" pos="26.84" length="2.97"/>
        <access friendlyPos="true" lane="1070124294_0" pos="9.96" length="7.34"/>
        <access friendlyPos="true" lane="388702039#9_0" pos="9.97" length="7.60"/>
        <access friendlyPos="true" lane="378662081_0" pos="0.00" length="17.50"/>
        <access friendlyPos="true" lane="1070124293#4_0" pos="0.20" length="18.64"/>
        <access friendlyPos="true" lane="1070124293#5_0" pos="0.00" length="19.24"/>
        <access friendlyPos="true" lane="1070124293#3_0" pos="0.20" length="19.36"/>
        <access friendlyPos="true" lane="388702041#4_0" pos="0.00" length="22.61"/>
        <access friendlyPos="true" lane="374734393#0_0" pos="0.00" length="23.63"/>
        <access friendlyPos="true" lane="1070124293#2_0" pos="0.20" length="21.60"/>
    </busStop>
    <busStop id="169717723#1:13.00" lane="169717723#1_0" startPos="0.00" endPos="13.00" friendlyPos="true" name="Torstr./U Oranienburger Tor (Berlin)">
        <access friendlyPos="true" lane="374734397#1_0" pos="45.64" length="2.16"/>
        <access friendlyPos="true" lane="1068129616#0_0" pos="0.20" length="3.76"/>
        <access friendlyPos="true" lane="374734397#2_0" pos="0.00" length="4.98"/>
        <access friendlyPos="true" lane="504171783#0_0" pos="0.00" length="14.65"/>
        <access friendlyPos="true" lane="1068129615#5_0" pos="2.26" length="13.94"/>
        <access friendlyPos="true" lane="1068129616#1_0" pos="0.00" length="35.76"/>
        <access friendlyPos="true" lane="504171780#0_0" pos="5.03" length="33.51"/>
        <access friendlyPos="true" lane="1069677813_0" pos="0.00" length="35.59"/>