<?xml version="1.0" encoding="UTF-8"?>

<!-- generated on 2023-05-04 22:04:13.164394 by routeSampler.py v1_17_0+0100-268e3cf
<configuration>
    <route-files value="input_routes.rou.xml"/>
    <edgedata-files value="input_edgedata.xml"/>
    <od-files value="input_turns.xml"/>
    <taz-files value="input_districts.xml"/>
    <extra-od value="True"/>
    <write-flows value="number"/>
</configuration>
-->

<routes xmlns:xsi="http://www.w3.org/2001/XMLSchema-instance" xsi:noNamespaceSchemaLocation="http://sumo.dlr.de/xsd/routes_file.xsd">
<!-- begin="0.0" end="99.0" -->
    <flow id="24" begin="0.00" end="1.00" number="1">
        <route edges="-37.80.00 -23 -23.80.00 -11 -11.80.00 15 15.180.00"/>
    </flow>
    <flow id="58" begin="12.38" end="61.88" number="3">
        <route edges="120 120.180.00 -109 -109.80.00 -11 -11.80.00 3 3.180.00 -71 -55 -55.80.00"/>
    </flow>
    <flow id="60" begin="24.75" end="25.75" number="1">
        <route edges="120 120.180.00 -109 -109.80.00 -11 -11.80.00 3 3.180.00 27 27.80.00 45"/>
    </flow>
    <flow id="68" begin="37.12" end="38.12" number="1">
        <route edges="15 15.180.00 -123 -123.121.42 -109 -109.80.00 -11"/>
    </flow>
    <flow id="29" begin="74.25" end="75.25" number="1">
        <route edges="-43.80.00 -27 -27.80.00 -3 -3.180.00 15 15.180.00 -144 -144.121.42 152"/>
    </flow>
    <flow id="39" begin="86.62" end="87.62" number="1">
        <route edges="-60 -60.80.00 -31 -31.80.00 -23 -23.80.00 -11 -11.80.00 3 3.180.00 27 27.80.00 43 68 -45 -45.80.00"/>
    </flow>
</routes>
