<routes>
    <routeDistribution id="horizontal">
        <route edges="left0A0 A0B0 B0right0"/>
        <route edges="left1A1 A1B1 B1right1"/>
        <route edges="right0B0 B0A0 A0left0"/>
        <route edges="right1B1 B1A1 A1left1"/>
    </routeDistribution>
    <flow id="horiz" route="horizontal" begin="0" end="90000" period="2" arrivalPos="-10" departSpeed="13.89"/>
    <routeDistribution id="vertical">
        <route edges="bottom0A0 A0A1 A1top0"/>
        <route edges="bottom1B0 B0B1 B1top1"/>
        <route edges="top0A1 A1A0 A0bottom0"/>
        <route edges="top1B1 B1B0 B0bottom1"/>
    </routeDistribution>

    <flow id="vertic" route="vertical" begin="0" end="90000" period="4" arrivalPos="-10" departSpeed="13.89"/>

    <routeDistribution id="random">
        <route edges="bottom0A0 A0A1 A1top0"/>
        <route edges="bottom1B0 B0B1 B1top1"/>
        <route edges="top0A1 A1A0 A0bottom0"/>
        <route edges="top1B1 B1B0 B0bottom1"/>
        <route edges="left0A0 A0B0 B0right0"/>
        <route edges="left1A1 A1B1 B1right1"/>
        <route edges="right0B0 B0A0 A0left0"/>
        <route edges="right1B1 B1A1 A1left1"/>
        <route edges="right0B0 B0B1 B1A1 A1top0"/>
        <route edges="bottom0A0 A0A1 A1B1 B1top1"/>
        <route edges="bottom1B0 B0B1 B1A1 A1top0"/>
        <route edges="left0A0 A0A1 A1B1 B1top1"/>
    </routeDistribution>

    <vType id="ev1" guiShape="emergency" vClass="emergency"/>
    <vType id="ev2" guiShape="firebrigade" vClass="emergency"/>
    <vType id="ev3" guiShape="police" vClass="emergency"/>
    <flow id="emergency1" type="ev1" route="random" begin="0" end="900" period="90"/>
    <flow id="emergency2" type="ev2" route="random" begin="0" end="900" period="85"/>
    <flow id="emergency3" type="ev3" route="random" begin="0" end="900" period="105"/>
</routes>
