<?xml version="1.0" encoding="UTF-8"?>

<!-- generated on 2023-06-29 14:40:45.552251 by routeSampler.py v1_17_0+1318-85f891f765f
<configuration>
    <route-files value="input_routes.rou.xml"/>
    <turn-files value="input_turns.xml"/>
    <prefix value="foo"/>
    <attributes value="color=&quot;blue&quot;"/>
</configuration>
-->

<routes xmlns:xsi="http://www.w3.org/2001/XMLSchema-instance" xsi:noNamespaceSchemaLocation="http://sumo.dlr.de/xsd/routes_file.xsd">
<!-- begin="0.0" end="99.0" -->
    <vehicle id="foo0" depart="1.79" color="blue">
        <route edges="3 3.180.00 -3 -3.180.00 11 11.80.00 23 23.80.00 31 31.80.00 64 64.80.00"/>
    </vehicle>
    <vehicle id="foo1" depart="4.32" color="blue">
        <route edges="37 -58 -58.121.42 -31 -31.80.00 -23 -23.80.00 -11 -11.80.00"/>
    </vehicle>
    <vehicle id="foo2" depart="9.52" color="blue">
        <route edges="-31.80.00 -23 -23.80.00 109 109.80.00 123"/>
    </vehicle>
    <vehicle id="foo3" depart="14.92" color="blue">
        <route edges="-71 -55 -55.80.00 -27 -27.80.00 -3 -3.180.00 11 11.80.00 23 23.80.00 31 31.80.00 58"/>
    </vehicle>
    <vehicle id="foo4" depart="17.32" color="blue">
        <route edges="3.180.00 -3 -3.180.00 11 11.80.00 23 23.80.00 31 31.80.00 58"/>
    </vehicle>
    <vehicle id="foo5" depart="17.42" color="blue">
        <route edges="71.121.42 -3 -3.180.00 15 15.180.00"/>
    </vehicle>
    <vehicle id="foo6" depart="17.70" color="blue">
        <route edges="-144 -144.121.42 152"/>
    </vehicle>
    <vehicle id="foo7" depart="18.68" color="blue">
        <route edges="-15 -15.180.00 15 15.180.00"/>
    </vehicle>
    <vehicle id="foo8" depart="20.70" color="blue">
        <route edges="-43.80.00 -27 -27.80.00 -71 -55 -55.80.00"/>
    </vehicle>
    <vehicle id="foo9" depart="21.80" color="blue">
        <route edges="-71 -55 -55.80.00 -27 -27.80.00 -3 -3.180.00 11 11.80.00 23 23.80.00 31 31.80.00 64 64.80.00 -64"/>
    </vehicle>
    <vehicle id="foo10" depart="22.63" color="blue">
        <route edges="3.180.00 27 27.80.00 55 71"/>
    </vehicle>
    <vehicle id="foo11" depart="22.79" color="blue">
        <route edges="-152.80.00 -131 -131.180.00 131"/>
    </vehicle>
    <vehicle id="foo12" depart="24.80" color="blue">
        <route edges="-27.80.00 27 27.80.00 45 -68 -43 -43.80.00"/>
    </vehicle>
    <vehicle id="foo13" depart="25.82" color="blue">
        <route edges="-43 -43.80.00 -27 -27.80.00 -3 -3.180.00 11 11.80.00 109 109.80.00"/>
    </vehicle>
    <vehicle id="foo14" depart="27.61" color="blue">
        <route edges="31 31.80.00 -31 -31.80.00 -23 -23.80.00 -11 -11.80.00 3 3.180.00 27 27.80.00 -27"/>
    </vehicle>
    <vehicle id="foo15" depart="27.68" color="blue">
        <route edges="-79.80.00 -60 -60.80.00 -31 -31.80.00 -23 -23.80.00 -11 -11.80.00 3 3.180.00 27 27.80.00"/>
    </vehicle>
    <vehicle id="foo16" depart="28.11" color="blue">
        <route edges="-79 -79.80.00 75 75.121.42 120 120.180.00 131 131.180.00 -131 -131.180.00"/>
    </vehicle>
    <vehicle id="foo17" depart="30.23" color="blue">
        <route edges="-120 -120.180.00 -64 -64.80.00 -31 -31.80.00 -23 -23.80.00 -11 -11.80.00 3 3.180.00 -71 -55 -55.80.00"/>
    </vehicle>
    <vehicle id="foo18" depart="30.50" color="blue">
        <route edges="-64 -64.80.00 64 64.80.00 120 120.180.00 123 123.121.42"/>
    </vehicle>
    <vehicle id="foo19" depart="32.27" color="blue">
        <route edges="43 68 -45 -45.80.00 -27 -27.80.00 -3 -3.180.00 11 11.80.00"/>
    </vehicle>
    <vehicle id="foo20" depart="32.74" color="blue">
        <route edges="-79 -79.80.00 75 75.121.42 120 120.180.00 131 131.180.00 -131 -131.180.00"/>
    </vehicle>
    <vehicle id="foo21" depart="34.52" color="blue">
        <route edges="37 -58 -58.121.42 -31 -31.80.00 -23 -23.80.00 -11 -11.80.00"/>
    </vehicle>
    <vehicle id="foo22" depart="34.66" color="blue">
        <route edges="15.180.00 -15 -15.180.00 11 11.80.00 23 23.80.00 31 31.80.00"/>
    </vehicle>
    <vehicle id="foo23" depart="36.28" color="blue">
        <route edges="58 -37 -37.80.00 -23 -23.80.00 -11 -11.80.00 3 3.180.00"/>
    </vehicle>
    <vehicle id="foo24" depart="36.86" color="blue">
        <route edges="120 120.180.00 -120 -120.180.00 -75 -75.121.42 -60"/>
    </vehicle>
    <vehicle id="foo25" depart="39.36" color="blue">
        <route edges="-15.180.00 11 11.80.00 23 23.80.00 31 31.80.00 64 64.80.00 120"/>
    </vehicle>
    <vehicle id="foo26" depart="39.48" color="blue">
        <route edges="15 15.180.00 -123 -123.121.42 -120 -120.180.00 -75 -75.121.42 75"/>
    </vehicle>
    <vehicle id="foo27" depart="40.05" color="blue">
        <route edges="-79.80.00 75 75.121.42 120 120.180.00 131 131.180.00 144 144.121.42"/>
    </vehicle>
    <vehicle id="foo28" depart="43.01" color="blue">
        <route edges="23 23.80.00 -23 -23.80.00 109"/>
    </vehicle>
    <vehicle id="foo29" depart="44.39" color="blue">
        <route edges="-27 -27.80.00 -3 -3.180.00 15 15.180.00 -144 -144.121.42 144 144.121.42"/>
    </vehicle>
    <vehicle id="foo30" depart="46.52" color="blue">
        <route edges="144 144.121.42 -123 -123.121.42 -120 -120.180.00 -64 -64.80.00 58"/>
    </vehicle>
    <vehicle id="foo31" depart="48.08" color="blue">
        <route edges="123 123.121.42 -15 -15.180.00 3 3.180.00 27 27.80.00 43 68"/>
    </vehicle>
    <vehicle id="foo32" depart="48.19" color="blue">
        <route edges="-43.80.00 -27 -27.80.00 27 27.80.00"/>
    </vehicle>
    <vehicle id="foo33" depart="48.90" color="blue">
        <route edges="-79 -79.80.00 -60 -60.80.00 -31 -31.80.00 -23 -23.80.00 -11 -11.80.00 3 3.180.00 -3 -3.180.00"/>
    </vehicle>
    <vehicle id="foo34" depart="49.42" color="blue">
        <route edges="-37.80.00 -23 -23.80.00 109 109.80.00 131"/>
    </vehicle>
    <vehicle id="foo35" depart="50.31" color="blue">
        <route edges="-37.80.00 -23 -23.80.00 -11 -11.80.00 15 15.180.00"/>
    </vehicle>
    <vehicle id="foo36" depart="50.37" color="blue">
        <route edges="23.80.00 31 31.80.00 60 60.80.00 75 75.121.42"/>
    </vehicle>
    <vehicle id="foo37" depart="51.15" color="blue">
        <route edges="-27 -27.80.00 -3 -3.180.00 15 15.180.00 -144 -144.121.42 144 144.121.42"/>
    </vehicle>
    <vehicle id="foo38" depart="51.26" color="blue">
        <route edges="3.180.00 27 27.80.00 55 71"/>
    </vehicle>
    <vehicle id="foo39" depart="53.60" color="blue">
        <route edges="58 -37 -37.80.00 -23 -23.80.00 -11 -11.80.00 3 3.180.00"/>
    </vehicle>
    <vehicle id="foo40" depart="53.71" color="blue">
        <route edges="31.80.00 58"/>
    </vehicle>
    <vehicle id="foo41" depart="54.72" color="blue">
        <route edges="60.80.00 -60 -60.80.00 -31 -31.80.00 -23 -23.80.00 -11 -11.80.00 5"/>
    </vehicle>
    <vehicle id="foo42" depart="55.27" color="blue">
        <route edges="-11 -11.80.00 15 15.180.00 -123 -123.121.42 -120 -120.180.00"/>
    </vehicle>
    <vehicle id="foo43" depart="56.63" color="blue">
        <route edges="-71 -55 -55.80.00 -27 -27.80.00 -3 -3.180.00 11 11.80.00 23 23.80.00 31 31.80.00 58"/>
    </vehicle>
    <vehicle id="foo44" depart="56.66" color="blue">
        <route edges="11.80.00 23 23.80.00 31"/>
    </vehicle>
    <vehicle id="foo45" depart="57.49" color="blue">
        <route edges="144 144.121.42 -123 -123.121.42 -120 -120.180.00 -64 -64.80.00 58"/>
    </vehicle>
    <vehicle id="foo46" depart="58.40" color="blue">
        <route edges="-43 -43.80.00 -27 -27.80.00"/>
    </vehicle>
    <vehicle id="foo47" depart="63.00" color="blue">
        <route edges="-131.180.00 -109 -109.80.00 -11 -11.80.00 3 3.180.00 -71 -55 -55.80.00"/>
    </vehicle>
    <vehicle id="foo48" depart="63.87" color="blue">
        <route edges="-109.80.00 -11 -11.80.00 3 3.180.00 27 27.80.00 -27 -27.80.00"/>
    </vehicle>
    <vehicle id="foo49" depart="66.22" color="blue">
        <route edges="-148 -148.80.00 -131 -131.180.00 -109 -109.80.00 23 23.80.00 37 -58 -58.121.42"/>
    </vehicle>
    <vehicle id="foo50" depart="66.23" color="blue">
        <route edges="45 -68 -43 -43.80.00 -27 -27.80.00 -3 -3.180.00 11 11.80.00 109 109.80.00 123 123.121.42"/>
    </vehicle>
    <vehicle id="foo51" depart="66.89" color="blue">
        <route edges="-3.180.00 11 11.80.00 23 23.80.00"/>
    </vehicle>
    <vehicle id="foo52" depart="68.88" color="blue">
        <route edges="27 27.80.00 -27 -27.80.00 -3 -3.180.00 11 11.80.00 23 23.80.00 31 31.80.00 64 64.80.00 -75"/>
    </vehicle>
    <vehicle id="foo53" depart="68.89" color="blue">
        <route edges="-58 -58.121.42 64 64.80.00 120 120.180.00"/>
    </vehicle>
    <vehicle id="foo54" depart="69.34" color="blue">
        <route edges="120 120.180.00 -109 -109.80.00 -11 -11.80.00 3 3.180.00 -71 -55 -55.80.00"/>
    </vehicle>
    <vehicle id="foo55" depart="70.40" color="blue">
        <route edges="-152.80.00 -131 -131.180.00 131"/>
    </vehicle>
    <vehicle id="foo56" depart="71.37" color="blue">
        <route edges="-64.80.00 -31 -31.80.00 -23 -23.80.00 -11 -11.80.00 3 3.180.00 -3"/>
    </vehicle>
    <vehicle id="foo57" depart="72.79" color="blue">
        <route edges="68 -45 -45.80.00 -27 -27.80.00 -3 -3.180.00 11 11.80.00 -11"/>
    </vehicle>
    <vehicle id="foo58" depart="73.67" color="blue">
        <route edges="3 3.180.00 -3 -3.180.00 11 11.80.00 23 23.80.00 31 31.80.00 64 64.80.00"/>
    </vehicle>
    <vehicle id="foo59" depart="74.02" color="blue">
        <route edges="-64 -64.80.00 64 64.80.00 120 120.180.00 -120 -120.180.00"/>
    </vehicle>
    <vehicle id="foo60" depart="76.09" color="blue">
        <route edges="-43 -43.80.00 -27 -27.80.00 -3 -3.180.00 11 11.80.00 109 109.80.00"/>
    </vehicle>
    <vehicle id="foo61" depart="77.75" color="blue">
        <route edges="58 -37 -37.80.00 -23"/>
    </vehicle>
    <vehicle id="foo62" depart="79.04" color="blue">
        <route edges="109 109.80.00 -109 -109.80.00 -11 -11.80.00 3 3.180.00 27 27.80.00 43 68 -45"/>
    </vehicle>
    <vehicle id="foo63" depart="80.14" color="blue">
        <route edges="-109.80.00 -11 -11.80.00 3 3.180.00 27 27.80.00 -27"/>
    </vehicle>
    <vehicle id="foo64" depart="80.83" color="blue">
        <route edges="-11.80.00 3 3.180.00 27 27.80.00 55 71"/>
    </vehicle>
    <vehicle id="foo65" depart="82.93" color="blue">
        <route edges="71 71.121.42 -3 -3.180.00 11 11.80.00 109 109.80.00 -120"/>
    </vehicle>
    <vehicle id="foo66" depart="83.82" color="blue">
        <route edges="-123.121.42 131"/>
    </vehicle>
    <vehicle id="foo67" depart="84.24" color="blue">
        <route edges="-55 -55.80.00 -27 -27.80.00 -3 -3.180.00 15 15.180.00 -144 -144.121.42 -131"/>
    </vehicle>
    <vehicle id="foo68" depart="84.78" color="blue">
        <route edges="120 120.180.00 -109 -109.80.00 -11 -11.80.00 3 3.180.00 27 27.80.00 43 68 -45"/>
    </vehicle>
    <vehicle id="foo69" depart="84.98" color="blue">
        <route edges="144 144.121.42 -15 -15.180.00 3 3.180.00 27 27.80.00"/>
    </vehicle>
    <vehicle id="foo70" depart="85.55" color="blue">
        <route edges="-144 -144.121.42 152"/>
    </vehicle>
    <vehicle id="foo71" depart="87.38" color="blue">
        <route edges="15 15.180.00 -123 -123.121.42 -109 -109.80.00 -11"/>
    </vehicle>
    <vehicle id="foo72" depart="87.47" color="blue">
        <route edges="-37 -37.80.00 -23 -23.80.00 109 109.80.00 131 131.180.00 144"/>
    </vehicle>
    <vehicle id="foo73" depart="87.89" color="blue">
        <route edges="-75.121.42 -60 -60.80.00 -31 -31.80.00 -23 -23.80.00 23"/>
    </vehicle>
    <vehicle id="foo74" depart="89.70" color="blue">
        <route edges="-123 -123.121.42 131 131.180.00"/>
    </vehicle>
    <vehicle id="foo75" depart="92.63" color="blue">
        <route edges="37 -58 -58.121.42 -31 -31.80.00 -23 -23.80.00 109 109.80.00 131 131.180.00 -131 -131.180.00"/>
    </vehicle>
    <vehicle id="foo76" depart="93.07" color="blue">
        <route edges="23.80.00 31 31.80.00 60 60.80.00 75 75.121.42"/>
    </vehicle>
    <vehicle id="foo77" depart="93.11" color="blue">
        <route edges="120 120.180.00 -109 -109.80.00 -11 -11.80.00 3 3.180.00 27 27.80.00 45"/>
    </vehicle>
    <vehicle id="foo78" depart="94.35" color="blue">
        <route edges="-148 -148.80.00 144 144.121.42 -15 -15.180.00 3 3.180.00 -3"/>
    </vehicle>
    <vehicle id="foo79" depart="95.58" color="blue">
        <route edges="27 27.80.00 -27 -27.80.00 -3 -3.180.00 11 11.80.00 23 23.80.00 37 -58 -58.121.42"/>
    </vehicle>
    <vehicle id="foo80" depart="96.39" color="blue">
        <route edges="120 120.180.00 -109 -109.80.00 -11 -11.80.00 3 3.180.00 27 27.80.00 43 68 -45"/>
    </vehicle>
    <vehicle id="foo81" depart="96.91" color="blue">
        <route edges="-75 -75.121.42 -60 -60.80.00 -31 -31.80.00 -23 -23.80.00 -11 -11.80.00 3 3.180.00 -71"/>
    </vehicle>
    <vehicle id="foo82" depart="97.05" color="blue">
        <route edges="23.80.00 31 31.80.00 60 60.80.00 75 75.121.42"/>
    </vehicle>
    <vehicle id="foo83" depart="97.23" color="blue">
        <route edges="-45.80.00 -27 -27.80.00 -3 -3.180.00 11 11.80.00 23 23.80.00 37 -58"/>
    </vehicle>
    <vehicle id="foo84" depart="98.45" color="blue">
        <route edges="-109.80.00 23 23.80.00 31 31.80.00 -31 -31.80.00"/>
    </vehicle>
    <vehicle id="foo85" depart="98.46" color="blue">
        <route edges="123 123.121.42 -123"/>
    </vehicle>
    <vehicle id="foo86" depart="98.63" color="blue">
        <route edges="-71 -55 -55.80.00 -27 -27.80.00 -3 -3.180.00 11 11.80.00 23 23.80.00 31 31.80.00 64 64.80.00 -64"/>
    </vehicle>
</routes>
