<?xml version="1.0" encoding="UTF-8"?>

<!-- generated on 2025-08-01 13:22:21 by Eclipse SUMO netconvert Version v1_24_0+0105-e209ab84cb0
This data file and the accompanying materials
are made available under the terms of the Eclipse Public License v2.0
which accompanies this distribution, and is available at
http://www.eclipse.org/legal/epl-v20.html
This file may also be made available under the following Secondary
Licenses when the conditions for such availability set forth in the Eclipse
Public License 2.0 are satisfied: GNU General Public License, version 2
or later which is available at
https://www.gnu.org/licenses/old-licenses/gpl-2.0-standalone.html
SPDX-License-Identifier: EPL-2.0 OR GPL-2.0-or-later
<netconvertConfiguration xmlns:xsi="http://www.w3.org/2001/XMLSchema-instance" xsi:noNamespaceSchemaLocation="http://sumo.dlr.de/xsd/netconvertConfiguration.xsd">

    <input>
        <type-files value="/scr1/sumo/data/typemap/osmNetconvert.typ.xml,/scr1/sumo/data/typemap/osmNetconvertPedestrians.typ.xml"/>
        <osm-files value="osm.xml"/>
    </input>

    <output>
        <write-license value="true"/>
    </output>

    <projection>
        <proj.utm value="true"/>
    </projection>

    <processing>
        <roundabouts.guess value="true"/>
    </processing>

    <junctions>
        <no-turnarounds value="true"/>
        <junctions.join value="true"/>
    </junctions>

    <pedestrian>
        <sidewalks.guess value="true"/>
        <crossings.guess value="true"/>
    </pedestrian>

    <formats>
        <osm.elevation value="false"/>
    </formats>

    <report>
        <xml-validation value="never"/>
    </report>

</netconvertConfiguration>
-->

<net version="1.20" junctionCornerDetail="5" walkingareas="true" limitTurnSpeed="5.50" xmlns:xsi="http://www.w3.org/2001/XMLSchema-instance" xsi:noNamespaceSchemaLocation="http://sumo.dlr.de/xsd/net_file.xsd">

    <location netOffset="-401158.11,-5793239.26" convBoundary="0.00,0.00,1995.84,3310.09" origBoundary="13.550816,52.280814,13.579929,52.310438" projParameter="+proj=utm +zone=33 +ellps=WGS84 +datum=WGS84 +units=m +no_defs"/>

    <type id="highway.footway" priority="1" numLanes="1" speed="2.78" allow="pedestrian" oneway="1" width="2.00"/>
    <type id="highway.motorway" priority="14" numLanes="2" speed="39.44" allow="private emergency authority army vip passenger hov taxi bus coach delivery truck trailer motorcycle evehicle custom1 custom2" oneway="1"/>
    <type id="highway.motorway_link" priority="9" numLanes="1" speed="22.22" allow="private emergency authority army vip passenger hov taxi bus coach delivery truck trailer motorcycle evehicle custom1 custom2" oneway="1"/>
    <type id="highway.path" priority="1" numLanes="1" speed="5.56" allow="pedestrian bicycle" oneway="0" width="2.00"/>
    <type id="highway.secondary" priority="11" numLanes="1" speed="27.78" disallow="pedestrian tram rail_urban rail rail_electric rail_fast ship container cable_car subway aircraft wheelchair scooter drone" oneway="0" sidewalkWidth="3.00"/>
    <type id="highway.service" priority="1" numLanes="1" speed="5.56" allow="pedestrian delivery bicycle" oneway="0"/>
    <type id="highway.track" priority="1" numLanes="1" speed="5.56" allow="pedestrian motorcycle moped bicycle" oneway="0"/>

    <edge id=":1238837003_0" function="internal">
        <lane id=":1238837003_0_0" index="0" allow="pedestrian bicycle" speed="5.56" length="0.29" width="2.00" shape="594.14,1197.78 593.85,1197.71"/>
    </edge>
    <edge id=":1238837003_1" function="internal">
        <lane id=":1238837003_1_0" index="0" allow="pedestrian bicycle" speed="5.56" length="0.24" width="2.00" shape="594.37,1195.78 594.60,1195.84"/>
    </edge>
    <edge id=":1238837003_w0" function="walkingarea">
        <lane id=":1238837003_w0_0" index="0" allow="pedestrian" speed="2.78" length="1.43" width="4.00" shape="593.90,1198.76 594.84,1194.87 594.63,1194.81 593.59,1198.68"/>
    </edge>
    <edge id=":1238837070_0" function="internal">
        <lane id=":1238837070_0_0" index="0" allow="pedestrian bicycle" speed="5.56" length="4.99" width="2.00" shape="406.18,1139.59 401.50,1137.84"/>
    </edge>
    <edge id=":1238837070_1" function="internal">
        <lane id=":1238837070_1_0" index="0" allow="pedestrian bicycle" speed="5.56" length="4.94" width="2.00" shape="402.22,1135.98 406.85,1137.71"/>
    </edge>
    <edge id=":1238837070_w0" function="walkingarea">
        <lane id=":1238837070_w0_0" index="0" allow="pedestrian" speed="2.78" length="3.93" width="4.00" shape="405.84,1140.53 407.19,1136.77 402.58,1135.05 401.14,1138.78 401.82,1140.64 403.58,1141.59"/>
    </edge>
    <edge id=":1238837098_0" function="internal">
        <lane id=":1238837098_0_0" index="0" allow="pedestrian bicycle" speed="5.56" length="0.10" width="2.00" shape="659.12,1213.38 659.06,1213.36"/>
    </edge>
    <edge id=":1238837098_1" function="internal">
        <lane id=":1238837098_1_0" index="0" allow="pedestrian bicycle" speed="5.56" length="0.10" width="2.00" shape="659.52,1211.42 659.46,1211.40"/>
    </edge>
    <edge id=":1238837098_w0" function="walkingarea">
        <lane id=":1238837098_w0_0" index="0" allow="pedestrian" speed="2.78" length="1.36" width="4.00" shape="659.03,1214.37 659.69,1210.43 658.76,1214.32"/>
    </edge>
    <edge id=":1649753799_0" function="internal">
        <lane id=":1649753799_0_0" index="0" allow="private emergency authority army vip passenger hov taxi bus coach delivery truck trailer motorcycle evehicle custom1 custom2" speed="27.77" length="13.74" shape="567.61,1330.26 569.29,1327.41 570.81,1324.96 572.33,1322.12 574.01,1318.13"/>
    </edge>
    <edge id=":1649753799_1" function="internal">
        <lane id=":1649753799_1_0" index="0" allow="private emergency authority army vip passenger hov taxi bus coach delivery truck trailer motorcycle evehicle custom1 custom2" speed="33.33" length="13.95" shape="570.71,1331.68 572.38,1327.90 573.85,1325.47 575.33,1323.03 577.01,1319.26"/>
        <lane id=":1649753799_1_1" index="1" allow="private emergency authority army vip passenger hov taxi bus coach delivery truck trailer motorcycle evehicle custom1 custom2" speed="33.33" length="13.95" shape="573.71,1332.80 575.38,1329.02 576.85,1326.59 578.33,1324.16 580.00,1320.39"/>
    </edge>
    <edge id=":205498344_0" function="internal">
        <lane id=":205498344_0_0" index="0" allow="private emergency authority army vip passenger hov taxi bus coach delivery truck trailer motorcycle evehicle custom1 custom2" speed="30.83" length="15.86" shape="541.28,1464.64 539.72,1467.75 538.16,1470.73 536.52,1474.28 534.70,1479.05"/>
    </edge>
    <edge id=":205498344_1" function="internal">
        <lane id=":205498344_1_0" index="0" allow="private emergency authority army vip passenger hov taxi bus coach delivery truck trailer motorcycle evehicle custom1 custom2" speed="39.44" length="15.97" shape="538.20,1463.41 531.67,1478.00"/>
        <lane id=":205498344_1_1" index="1" allow="private emergency authority army vip passenger hov taxi bus coach delivery truck trailer motorcycle evehicle custom1 custom2" speed="39.44" length="15.97" shape="535.16,1462.40 528.65,1476.96"/>
    </edge>
    <edge id=":205498346_0" function="internal">
        <lane id=":205498346_0_0" index="0" allow="private emergency authority army vip passenger hov taxi bus coach delivery truck trailer motorcycle evehicle custom1 custom2" speed="30.83" length="11.05" shape="594.25,1316.52 593.23,1319.69 592.83,1322.01 592.66,1324.30 592.34,1327.36"/>
    </edge>
    <edge id=":205498346_1" function="internal">
        <lane id=":205498346_1_0" index="0" allow="private emergency authority army vip passenger hov taxi bus coach delivery truck trailer motorcycle evehicle custom1 custom2" speed="39.44" length="11.41" shape="591.26,1315.39 590.33,1318.61 590.09,1320.94 589.86,1323.26 588.95,1326.50"/>
        <lane id=":205498346_1_1" index="1" allow="private emergency authority army vip passenger hov taxi bus coach delivery truck trailer motorcycle evehicle custom1 custom2" speed="39.44" length="11.41" shape="588.27,1314.25 587.33,1317.49 587.09,1319.81 586.86,1322.15 585.95,1325.39"/>
    </edge>
    <edge id=":205498363_0" function="internal">
        <lane id=":205498363_0_0" index="0" allow="private emergency authority army vip passenger hov taxi bus coach delivery truck trailer motorcycle evehicle custom1 custom2" speed="22.22" length="9.08" shape="651.36,1400.77 648.78,1401.29 646.91,1401.12 645.03,1400.87 642.38,1401.18"/>
    </edge>
    <edge id=":205498363_1" function="internal">
        <lane id=":205498363_1_0" index="0" allow="private emergency authority army vip passenger hov taxi bus coach delivery truck trailer motorcycle evehicle custom1 custom2" speed="15.28" length="8.30" shape="642.19,1397.49 644.62,1397.94 646.33,1398.31 648.00,1398.33 650.33,1397.74"/>
    </edge>
    <edge id=":205498368_0" function="internal">
        <lane id=":205498368_0_0" index="0" allow="private emergency authority army vip passenger hov taxi bus coach delivery truck trailer motorcycle evehicle custom1 custom2" speed="6.11" length="7.50" shape="741.54,1239.50 740.24,1239.70 739.13,1240.70 738.23,1242.49 737.52,1245.08"/>
    </edge>
    <edge id=":205498368_1" function="internal">
        <lane id=":205498368_1_0" index="0" disallow="pedestrian tram rail_urban rail rail_electric rail_fast ship container cable_car subway aircraft wheelchair scooter drone" speed="19.44" length="9.02" shape="741.54,1239.50 732.68,1237.84"/>
    </edge>
    <edge id=":205498368_2" function="internal">
        <lane id=":205498368_2_0" index="0" disallow="pedestrian tram rail_urban rail rail_electric rail_fast ship container cable_car subway aircraft wheelchair scooter drone" speed="19.44" length="9.38" shape="734.12,1231.61 736.60,1232.69 738.03,1234.11 739.48,1235.47 742.00,1236.34"/>
    </edge>
    <edge id=":205498368_3" function="internal">
        <lane id=":205498368_3_0" index="0" allow="private emergency authority army vip passenger hov taxi bus coach delivery truck trailer motorcycle evehicle custom1 custom2" speed="7.62" length="2.74" shape="733.40,1234.73 735.88,1235.88"/>
    </edge>
    <edge id=":205498368_6" function="internal">
        <lane id=":205498368_6_0" index="0" allow="private emergency authority army vip passenger hov taxi bus coach delivery truck trailer motorcycle evehicle custom1 custom2" speed="7.62" length="9.76" shape="735.88,1235.88 737.40,1238.00 737.95,1241.06 737.52,1245.08"/>
    </edge>
    <edge id=":205498368_4" function="internal">
        <lane id=":205498368_4_0" index="0" allow="private emergency authority army vip passenger hov taxi bus coach delivery truck trailer motorcycle evehicle custom1 custom2" speed="6.05" length="7.50" shape="734.39,1244.45 734.73,1241.81 734.56,1239.83 733.88,1238.51 732.68,1237.84"/>
    </edge>
    <edge id=":205498368_5" function="internal">
        <lane id=":205498368_5_0" index="0" allow="private emergency authority army vip passenger hov taxi bus coach delivery truck trailer motorcycle evehicle custom1 custom2" speed="7.67" length="12.39" shape="734.39,1244.45 735.54,1240.59 737.19,1237.95 739.35,1236.53 742.00,1236.34"/>
    </edge>
    <edge id=":205498368_w1" function="walkingarea">
        <lane id=":205498368_w1_0" index="0" allow="pedestrian" speed="2.78" length="8.95" width="3.00" shape="742.23,1234.75 742.66,1231.78 735.15,1227.12 734.47,1230.05 736.27,1230.70 737.45,1231.58 738.33,1232.54 739.21,1233.47 740.40,1234.25"/>
    </edge>
    <edge id=":2398589370_0" function="internal">
        <lane id=":2398589370_0_0" index="0" allow="bicycle" speed="5.69" length="6.48" width="2.00" shape="366.85,1139.88 365.71,1139.81 364.61,1140.47 363.55,1141.84 362.54,1143.93"/>
    </edge>
    <edge id=":2398589370_1" function="internal">
        <lane id=":2398589370_1_0" index="0" allow="bicycle" speed="5.52" length="6.15" width="2.00" shape="366.85,1139.88 365.07,1139.03 363.95,1138.01 363.47,1136.82 363.65,1135.45"/>
    </edge>
    <edge id=":2398589370_2" function="internal">
        <lane id=":2398589370_2_0" index="0" allow="pedestrian bicycle" speed="5.56" length="8.37" width="2.00" shape="365.54,1136.12 362.54,1143.93"/>
    </edge>
    <edge id=":2398589370_3" function="internal">
        <lane id=":2398589370_3_0" index="0" allow="pedestrian bicycle" speed="5.56" length="8.28" width="2.00" shape="360.69,1143.18 363.65,1135.45"/>
    </edge>
    <edge id=":2398589370_w0" function="walkingarea">
        <lane id=":2398589370_w0_0" index="0" allow="pedestrian" speed="2.78" length="6.07" width="3.00" shape="366.49,1136.45 364.60,1135.79 362.71,1135.12 359.76,1142.81 361.61,1143.56 363.47,1144.31 365.28,1144.20 366.31,1141.38"/>
    </edge>
    <edge id=":2398589374_0" function="internal">
        <lane id=":2398589374_0_0" index="0" disallow="pedestrian tram rail_urban rail rail_electric rail_fast ship container cable_car subway aircraft wheelchair scooter drone" speed="19.44" length="8.22" shape="436.63,1156.79 438.95,1157.46 440.63,1157.55 442.33,1157.62 444.66,1158.25"/>
        <lane id=":2398589374_0_1" index="1" disallow="pedestrian tram rail_urban rail rail_electric rail_fast ship container cable_car subway aircraft wheelchair scooter drone" speed="19.44" length="8.22" shape="436.63,1156.79 438.77,1157.93 440.06,1159.04 441.35,1160.14 443.51,1161.24"/>
    </edge>
    <edge id=":2398589374_w0" function="walkingarea">
        <lane id=":2398589374_w0_0" index="0" allow="pedestrian" speed="2.78" length="8.10" width="3.00" shape="445.23,1156.76 446.31,1153.96 438.36,1152.53 437.23,1155.31 438.87,1155.85 440.14,1156.04 441.22,1156.06 442.31,1156.07 443.58,1156.25"/>
    </edge>
    <edge id=":2398589438_w0" function="walkingarea">
        <lane id=":2398589438_w0_0" index="0" allow="pedestrian" speed="2.78" length="2.00" width="4.00" shape="1995.84,1456.48 1993.98,1457.22 1997.70,1455.74 1995.84,1456.48"/>
    </edge>
    <edge id=":2612403306_0" function="internal">
        <lane id=":2612403306_0_0" index="0" allow="private emergency authority army vip passenger hov taxi bus coach delivery truck trailer motorcycle evehicle custom1 custom2" speed="39.44" length="8.21" shape="667.72,1118.22 667.12,1120.56 667.07,1122.25 667.02,1123.95 666.40,1126.28"/>
        <lane id=":2612403306_0_1" index="1" allow="private emergency authority army vip passenger hov taxi bus coach delivery truck trailer motorcycle evehicle custom1 custom2" speed="39.44" length="8.21" shape="667.72,1118.22 666.65,1120.38 665.58,1121.69 664.50,1122.99 663.41,1125.15"/>
        <lane id=":2612403306_0_2" index="2" allow="private emergency authority army vip passenger hov taxi bus coach delivery truck trailer motorcycle evehicle custom1 custom2" speed="39.44" length="8.21" shape="664.72,1117.10 663.65,1119.26 662.58,1120.56 661.50,1121.87 660.42,1124.01"/>
    </edge>
    <edge id=":281279599_0" function="internal">
        <lane id=":281279599_0_0" index="0" allow="motorcycle moped bicycle" speed="5.97" length="7.70" shape="906.68,1265.66 905.20,1265.80 904.04,1266.78 903.19,1268.59 902.65,1271.24"/>
    </edge>
    <edge id=":281279599_1" function="internal">
        <lane id=":281279599_1_0" index="0" disallow="pedestrian tram rail_urban rail rail_electric rail_fast ship container cable_car subway aircraft wheelchair scooter drone" speed="19.44" length="9.13" shape="906.68,1265.66 897.72,1263.88"/>
    </edge>
    <edge id=":281279599_2" function="internal">
        <lane id=":281279599_2_0" index="0" disallow="pedestrian tram rail_urban rail rail_electric rail_fast ship container cable_car subway aircraft wheelchair scooter drone" speed="19.44" length="8.93" shape="898.45,1260.77 907.21,1262.51"/>
    </edge>
    <edge id=":281279599_3" function="internal">
        <lane id=":281279599_3_0" index="0" allow="motorcycle moped bicycle" speed="7.82" length="2.53" shape="898.45,1260.77 900.72,1261.89"/>
    </edge>
    <edge id=":281279599_6" function="internal">
        <lane id=":281279599_6_0" index="0" allow="motorcycle moped bicycle" speed="7.82" length="9.87" shape="900.72,1261.89 902.17,1264.01 902.82,1267.13 902.65,1271.24"/>
    </edge>
    <edge id=":281279599_4" function="internal">
        <lane id=":281279599_4_0" index="0" allow="motorcycle moped bicycle" speed="6.30" length="7.72" shape="899.48,1270.85 899.66,1268.02 899.43,1265.92 898.79,1264.54 897.72,1263.88"/>
    </edge>
    <edge id=":281279599_5" function="internal">
        <lane id=":281279599_5_0" index="0" allow="motorcycle moped bicycle" speed="7.56" length="12.97" shape="899.48,1270.85 900.40,1266.78 902.00,1264.03 904.27,1262.61 907.21,1262.51"/>
    </edge>
    <edge id=":281279599_w0" function="walkingarea">
        <lane id=":281279599_w0_0" index="0" allow="pedestrian" speed="2.78" length="5.94" width="3.20" shape="897.36,1265.44 896.67,1268.36 897.89,1270.65 901.06,1271.04 904.24,1271.44 905.90,1270.20 906.41,1267.24"/>
    </edge>
    <edge id=":281279599_w1" function="walkingarea">
        <lane id=":281279599_w1_0" index="0" allow="pedestrian" speed="2.78" length="8.74" width="3.00" shape="907.48,1260.93 907.99,1257.97 899.51,1256.29 898.82,1259.21"/>
    </edge>
    <edge id=":281279626_0" function="internal">
        <lane id=":281279626_0_0" index="0" allow="pedestrian bicycle" speed="5.14" length="5.12" shape="892.43,1356.98 890.99,1356.98 889.90,1357.41 889.14,1358.28 888.73,1359.57"/>
    </edge>
    <edge id=":281279626_1" function="internal">
        <lane id=":281279626_1_0" index="0" allow="pedestrian bicycle" speed="5.56" length="10.32" shape="892.43,1356.98 889.70,1356.21 887.90,1354.75 887.03,1352.60 887.09,1349.76"/>
    </edge>
    <edge id=":281279626_2" function="internal">
        <lane id=":281279626_2_0" index="0" allow="pedestrian bicycle" speed="5.01" length="5.04" shape="890.25,1350.28 890.21,1351.67 890.64,1352.72 891.52,1353.43 892.85,1353.81"/>
    </edge>
    <edge id=":281279626_3" function="internal">
        <lane id=":281279626_3_0" index="0" allow="pedestrian motorcycle moped bicycle" speed="5.56" length="9.41" shape="890.25,1350.28 888.73,1359.57"/>
    </edge>
    <edge id=":281279626_4" function="internal">
        <lane id=":281279626_4_0" index="0" allow="pedestrian motorcycle moped bicycle" speed="5.56" length="9.43" shape="885.57,1359.06 887.09,1349.76"/>
    </edge>
    <edge id=":281279626_5" function="internal">
        <lane id=":281279626_5_0" index="0" allow="pedestrian bicycle" speed="5.56" length="10.18" shape="885.57,1359.06 886.39,1356.45 887.88,1354.70 890.03,1353.82 892.85,1353.81"/>
    </edge>
    <edge id=":281279626_w0" function="walkingarea">
        <lane id=":281279626_w0_0" index="0" allow="pedestrian" speed="2.78" length="6.90" width="6.40" shape="892.22,1358.56 893.06,1352.22 892.27,1351.95 892.01,1351.70 891.85,1351.39 891.79,1351.00 891.82,1350.54 885.51,1349.50 883.99,1358.81 890.31,1359.82 890.63,1359.03 890.91,1358.77 891.26,1358.61 891.70,1358.54"/>
    </edge>
    <edge id=":281279627_0" function="internal">
        <lane id=":281279627_0_0" index="0" allow="pedestrian bicycle" speed="5.00" length="5.04" shape="870.52,1493.04 869.13,1492.94 868.06,1493.31 867.31,1494.16 866.87,1495.48"/>
    </edge>
    <edge id=":281279627_1" function="internal">
        <lane id=":281279627_1_0" index="0" allow="pedestrian bicycle" speed="5.56" length="10.13" shape="870.52,1493.04 867.87,1492.08 866.12,1490.54 865.25,1488.42 865.29,1485.73"/>
    </edge>
    <edge id=":281279627_2" function="internal">
        <lane id=":281279627_2_0" index="0" allow="pedestrian bicycle" speed="5.21" length="5.18" shape="868.45,1486.23 868.44,1487.58 868.90,1488.64 869.82,1489.42 871.20,1489.92"/>
    </edge>
    <edge id=":281279627_3" function="internal">
        <lane id=":281279627_3_0" index="0" allow="pedestrian motorcycle moped bicycle" speed="5.56" length="9.38" shape="868.45,1486.23 866.87,1495.48"/>
    </edge>
    <edge id=":281279627_4" function="internal">
        <lane id=":281279627_4_0" index="0" allow="pedestrian motorcycle moped bicycle" speed="5.56" length="9.32" shape="863.72,1494.91 865.29,1485.73"/>
    </edge>
    <edge id=":281279627_5" function="internal">
        <lane id=":281279627_5_0" index="0" allow="pedestrian bicycle" speed="5.56" length="10.35" shape="863.72,1494.91 864.62,1492.21 866.17,1490.47 868.36,1489.71 871.20,1489.92"/>
    </edge>
    <edge id=":281279627_w0" function="walkingarea">
        <lane id=":281279627_w0_0" index="0" allow="pedestrian" speed="2.78" length="6.90" width="6.40" shape="870.18,1494.60 871.54,1488.35 870.59,1487.97 870.29,1487.69 870.09,1487.35 870.00,1486.95 870.03,1486.49 863.71,1485.48 862.15,1494.63 868.45,1495.76 868.76,1494.98 869.01,1494.73 869.33,1494.59 869.72,1494.55"/>
    </edge>
    <edge id=":281391218_w0" function="walkingarea">
        <lane id=":281391218_w0_0" index="0" allow="pedestrian" speed="2.78" length="3.20" width="6.40" shape="613.64,2484.32 611.03,2482.47 616.25,2486.17 613.64,2484.32"/>
    </edge>
    <edge id=":2840913155_0" function="internal">
        <lane id=":2840913155_0_0" index="0" allow="pedestrian motorcycle moped bicycle" speed="5.56" length="0.28" shape="679.00,1199.40 678.92,1199.67"/>
    </edge>
    <edge id=":2840913155_1" function="internal">
        <lane id=":2840913155_1_0" index="0" allow="pedestrian motorcycle moped bicycle" speed="5.56" length="0.14" shape="675.86,1198.76 675.89,1198.62"/>
    </edge>
    <edge id=":2840913155_w0" function="walkingarea">
        <lane id=":2840913155_w0_0" index="0" allow="pedestrian" speed="2.78" length="2.21" width="6.40" shape="680.55,1199.79 674.34,1198.23 680.46,1200.12"/>
    </edge>
    <edge id=":2840913156_w0" function="walkingarea">
        <lane id=":2840913156_w0_0" index="0" allow="pedestrian" speed="2.78" length="3.20" width="6.40" shape="1080.95,67.19 1083.96,68.27 1077.94,66.11 1080.95,67.19"/>
    </edge>
    <edge id=":294545994_w0" function="walkingarea">
        <lane id=":294545994_w0_0" index="0" allow="pedestrian" speed="2.78" length="3.20" width="6.40" shape="-0.00,972.56 -1.73,969.87 1.73,975.25 0.00,972.56"/>
    </edge>
    <edge id=":309374748_0" function="internal">
        <lane id=":309374748_0_0" index="0" allow="private emergency authority army vip passenger hov taxi bus coach delivery truck trailer motorcycle evehicle custom1 custom2" speed="36.38" length="8.21" shape="646.59,1134.48 647.20,1132.15 647.25,1130.46 647.29,1128.77 647.89,1126.43"/>
        <lane id=":309374748_0_1" index="1" allow="private emergency authority army vip passenger hov taxi bus coach delivery truck trailer motorcycle evehicle custom1 custom2" speed="36.38" length="8.21" shape="649.59,1135.61 650.20,1133.28 650.25,1131.58 650.29,1129.88 650.89,1127.54"/>
    </edge>
    <edge id=":3203789084_0" function="internal">
        <lane id=":3203789084_0_0" index="0" allow="private emergency authority army vip passenger hov taxi bus coach delivery truck trailer motorcycle evehicle custom1 custom2" speed="33.33" length="8.21" shape="455.07,1675.84 455.42,1673.45 455.28,1671.75 455.16,1670.06 455.53,1667.68"/>
        <lane id=":3203789084_0_1" index="1" allow="private emergency authority army vip passenger hov taxi bus coach delivery truck trailer motorcycle evehicle custom1 custom2" speed="33.33" length="8.21" shape="455.07,1675.84 455.90,1673.58 456.83,1672.16 457.77,1670.75 458.62,1668.50"/>
        <lane id=":3203789084_0_2" index="2" allow="private emergency authority army vip passenger hov taxi bus coach delivery truck trailer motorcycle evehicle custom1 custom2" speed="33.33" length="8.21" shape="458.17,1676.63 459.00,1674.38 459.93,1672.97 460.86,1671.56 461.72,1669.32"/>
    </edge>
    <edge id=":3203790180_0" function="internal">
        <lane id=":3203790180_0_0" index="0" disallow="pedestrian tram rail_urban rail rail_electric rail_fast ship container cable_car subway aircraft wheelchair scooter drone" speed="19.44" length="7.98" shape="692.35,1228.58 684.56,1226.81"/>
    </edge>
    <edge id=":3203790180_1" function="internal">
        <lane id=":3203790180_1_0" index="0" disallow="pedestrian tram rail_urban rail rail_electric rail_fast ship container cable_car subway aircraft wheelchair scooter drone" speed="19.44" length="8.41" shape="685.26,1223.69 687.78,1223.74 689.52,1223.00 691.27,1222.27 693.78,1222.34"/>
        <lane id=":3203790180_1_1" index="1" disallow="pedestrian tram rail_urban rail rail_electric rail_fast ship container cable_car subway aircraft wheelchair scooter drone" speed="19.44" length="8.41" shape="685.26,1223.69 693.07,1225.46"/>
    </edge>
    <edge id=":3203790180_w0" function="walkingarea">
        <lane id=":3203790180_w0_0" index="0" allow="pedestrian" speed="2.78" length="7.97" width="3.00" shape="684.21,1228.37 683.56,1231.30 691.32,1233.06 691.99,1230.13"/>
    </edge>
    <edge id=":3203790180_w1" function="walkingarea">
        <lane id=":3203790180_w1_0" index="0" allow="pedestrian" speed="2.78" length="8.64" width="3.00" shape="694.14,1220.78 694.81,1217.85 693.01,1217.68 691.66,1217.98 690.54,1218.52 689.42,1219.05 688.07,1219.36 686.27,1219.20 685.61,1222.12 687.41,1222.29 688.76,1221.98 689.88,1221.44 691.00,1220.91 692.34,1220.61"/>
    </edge>
    <edge id=":4372106700_w0" function="walkingarea">
        <lane id=":4372106700_w0_0" index="0" allow="pedestrian" speed="2.78" length="2.00" width="4.00" shape="361.83,1143.02 359.98,1142.27 363.68,1143.77 361.83,1143.02"/>
    </edge>
    <edge id=":437344117_w0" function="walkingarea">
        <lane id=":437344117_w0_0" index="0" allow="pedestrian" speed="2.78" length="3.20" width="6.40" shape="690.24,972.73 689.12,975.73 691.36,969.73 690.24,972.73"/>
    </edge>
    <edge id=":449332864_0" function="internal">
        <lane id=":449332864_0_0" index="0" allow="private emergency authority army vip passenger hov taxi bus coach delivery truck trailer motorcycle evehicle custom1 custom2" speed="22.22" length="7.34" shape="476.38,1357.10 475.13,1355.35 473.97,1354.37 472.81,1353.39 471.55,1351.65"/>
    </edge>
    <edge id=":449332864_1" function="internal">
        <lane id=":449332864_1_0" index="0" allow="private emergency authority army vip passenger hov taxi bus coach delivery truck trailer motorcycle evehicle custom1 custom2" speed="15.14" length="6.75" shape="474.34,1350.09 475.41,1351.74 476.38,1352.70 477.55,1353.48 479.21,1354.61"/>
    </edge>
    <edge id=":52677760_w0" function="walkingarea">
        <lane id=":52677760_w0_0" index="0" allow="pedestrian" speed="2.78" length="9.40" width="3.00" shape="1858.48,1434.86 1857.98,1437.81 1860.04,1425.59 1859.54,1428.54"/>
    </edge>
    <edge id=":52677943_0" function="internal">
        <lane id=":52677943_0_0" index="0" disallow="pedestrian tram rail_urban rail rail_electric rail_fast ship container cable_car subway aircraft wheelchair scooter drone" speed="19.44" length="0.31" shape="657.38,1220.72 657.08,1220.65"/>
    </edge>
    <edge id=":52677943_1" function="internal">
        <lane id=":52677943_1_0" index="0" disallow="pedestrian tram rail_urban rail rail_electric rail_fast ship container cable_car subway aircraft wheelchair scooter drone" speed="19.44" length="0.22" shape="657.86,1217.55 658.08,1217.60"/>
    </edge>
    <edge id=":52677943_w0" function="walkingarea">
        <lane id=":52677943_w0_0" index="0" allow="pedestrian" speed="2.78" length="0.39" width="3.00" shape="656.69,1222.20 655.95,1225.11 656.37,1225.21 657.03,1222.28"/>
    </edge>
    <edge id=":52677943_w1" function="walkingarea">
        <lane id=":52677943_w1_0" index="0" allow="pedestrian" speed="2.78" length="0.14" width="3.00" shape="658.43,1216.04 659.08,1213.11 658.26,1216.00"/>
    </edge>
    <edge id=":52677991_0" function="internal">
        <lane id=":52677991_0_0" index="0" disallow="pedestrian tram rail_urban rail rail_electric rail_fast ship container cable_car subway aircraft wheelchair scooter drone" speed="19.44" length="0.24" shape="592.48,1204.32 592.25,1204.27"/>
    </edge>
    <edge id=":52677991_1" function="internal">
        <lane id=":52677991_1_0" index="0" disallow="pedestrian tram rail_urban rail rail_electric rail_fast ship container cable_car subway aircraft wheelchair scooter drone" speed="19.44" length="0.31" shape="592.96,1201.15 593.27,1201.22"/>
    </edge>
    <edge id=":52677991_w0" function="walkingarea">
        <lane id=":52677991_w0_0" index="0" allow="pedestrian" speed="2.78" length="0.17" width="3.00" shape="591.89,1205.83 591.22,1208.75 591.35,1208.78 592.09,1205.88"/>
    </edge>
    <edge id=":52677991_w1" function="walkingarea">
        <lane id=":52677991_w1_0" index="0" allow="pedestrian" speed="2.78" length="0.38" width="3.00" shape="593.66,1199.67 594.39,1196.76 593.99,1196.67 593.32,1199.59"/>
    </edge>
    <edge id=":52678010_0" function="internal">
        <lane id=":52678010_0_0" index="0" disallow="pedestrian tram rail_urban rail rail_electric rail_fast ship container cable_car subway aircraft wheelchair scooter drone" speed="20.83" length="0.17" shape="460.93,1171.33 461.10,1171.37"/>
    </edge>
    <edge id=":52678010_1" function="internal">
        <lane id=":52678010_1_0" index="0" disallow="pedestrian tram rail_urban rail rail_electric rail_fast ship container cable_car subway aircraft wheelchair scooter drone" speed="19.44" length="0.30" shape="462.57,1165.15 463.01,1165.28"/>
        <lane id=":52678010_1_1" index="1" disallow="pedestrian tram rail_urban rail rail_electric rail_fast ship container cable_car subway aircraft wheelchair scooter drone" speed="19.44" length="0.30" shape="461.83,1168.29 461.87,1168.30 461.90,1168.30 461.93,1168.30 461.97,1168.31"/>
    </edge>
    <edge id=":52678010_w0" function="walkingarea">