<?xml version="1.0" encoding="UTF-8"?>

<!-- generated on 2021-09-16 11:08:17 by Eclipse SUMO netedit Version v1_10_0+0721-94326db740
-->

<routes xmlns:xsi="http://www.w3.org/2001/XMLSchema-instance" xsi:noNamespaceSchemaLocation="http://sumo.dlr.de/xsd/routes_file.xsd">
    <trip id="trip_1" depart="20.00" arrivalPosLat="0.00" from="gneE2" to="gneE5"/>
    <trip id="trip_2" depart="20.00" arrivalPosLat="0.00" from="gneE2" to="gneE5"/>
    <trip id="trip_3" depart="20.00" arrivalPosLat="0.00" from="gneE2" to="gneE5"/>
    <trip id="trip_4" depart="20.00" arrivalPosLat="0.00" from="gneE2" to="gneE5"/>
    <trip id="trip_5" depart="20.00" arrivalPosLat="left" from="gneE2" to="gneE5"/>
    <trip id="trip_6" depart="20.00" arrivalPosLat="right" from="gneE2" to="gneE5"/>
    <trip id="trip_7" depart="20.00" arrivalPosLat="center" from="gneE2" to="gneE5"/>
</routes>
