<additional xmlns:xsi="http://www.w3.org/2001/XMLSchema-instance" xsi:noNamespaceSchemaLocation="https://sumo.dlr.de/xsd/additional_file.xsd">

	<!-- non valid lane (missing) -->
    <calibrator id="calibrator01" pos="12.00" freq="100.00" output="calibrator01.txt"/>
	
	<!-- non valid edge (dummy) -->
	<calibrator id="calibrator02" lane="dummyLane" pos="14.00" freq="100.00" output="calibrator02.txt"/>
	
	<!-- valid lane (different) -->
	<calibrator id="calibrator03" lane="gneE1_0" pos="16.00" freq="100.00" output="calibrator03.txt"/>
	
</additional>
