<?xml version="1.0" encoding="UTF-8"?>

<!-- generated on 2024-02-29 13:56:07 by Eclipse SUMO netconvert Version v1_19_0+1092-a49a04372af
This data file and the accompanying materials
are made available under the terms of the Eclipse Public License v2.0
which accompanies this distribution, and is available at
http://www.eclipse.org/legal/epl-v20.html
This file may also be made available under the following Secondary
Licenses when the conditions for such availability set forth in the Eclipse
Public License 2.0 are satisfied: GNU General Public License, version 2
or later which is available at
https://www.gnu.org/licenses/old-licenses/gpl-2.0-standalone.html
SPDX-License-Identifier: EPL-2.0 OR GPL-2.0-or-later
<configuration xmlns:xsi="http://www.w3.org/2001/XMLSchema-instance" xsi:noNamespaceSchemaLocation="http://sumo.dlr.de/xsd/netconvertConfiguration.xsd">

    <input>
        <osm-files value="osm.xml"/>
    </input>

    <output>
        <write-license value="true"/>
        <output-file value="net.net.xml"/>
    </output>

    <projection>
        <proj.utm value="true"/>
    </projection>

    <report>
        <xml-validation value="never"/>
        <ignore-errors value="true"/>
    </report>

</configuration>
-->

<net version="1.20" junctionCornerDetail="5" limitTurnSpeed="5.50" xmlns:xsi="http://www.w3.org/2001/XMLSchema-instance" xsi:noNamespaceSchemaLocation="http://sumo.dlr.de/xsd/net_file.xsd">

    <location netOffset="250204.16,9024100.88" convBoundary="0.00,0.00,6657137.59,19089107.12" origBoundary="-106.779095,-79.013333,21.566578,43.226864" projParameter="+proj=utm +zone=19 +ellps=WGS84 +datum=WGS84 +units=m +no_defs"/>

    <type id="highway.residential" priority="3" numLanes="1" speed="13.89" disallow="tram rail_urban rail rail_electric rail_fast ship" oneway="0"/>

    <edge id=":1697931355_0" function="internal">
        <lane id=":1697931355_0_0" index="0" disallow="tram rail_urban rail rail_electric rail_fast ship" speed="3.65" length="4.67" shape="-1.51,0.53 -1.15,-0.87 -0.53,-1.51 0.36,-1.40 1.51,-0.53"/>
    </edge>
    <edge id=":1697931360_0" function="internal">
        <lane id=":1697931360_0_0" index="0" disallow="tram rail_urban rail rail_electric rail_fast ship" speed="3.65" length="4.67" shape="6657139.10,19089106.59 6657138.74,19089107.99 6657138.12,19089108.63 6657137.23,19089108.51 6657136.08,19089107.64"/>
    </edge>

    <edge id="-157562752" from="1697931355" to="1697931360" priority="3" type="highway.residential">
        <lane id="-157562752_0" index="0" disallow="tram rail_urban rail rail_electric rail_fast ship" speed="13.89" length="20216614.24" shape="1.51,-0.53 6657139.10,19089106.59"/>
    </edge>
    <edge id="157562752" from="1697931360" to="1697931355" priority="3" type="highway.residential">
        <lane id="157562752_0" index="0" disallow="tram rail_urban rail rail_electric rail_fast ship" speed="13.89" length="20216614.24" shape="6657136.08,19089107.64 -1.51,0.53"/>
    </edge>
    <edge id="8614778" from="61330091" to="61321502" priority="3" type="highway.residential" spreadType="center" shape="574138.68,13718947.37 574165.80,13718990.57 574191.62,13719031.59 574221.78,13719077.72">
        <lane id="8614778_0" index="0" disallow="tram rail_urban rail rail_electric rail_fast ship" speed="13.89" length="154.60" width="6.70" shape="574141.52,13718945.59 574168.63,13718988.79 574194.44,13719029.78 574224.58,13719075.89"/>
        <lane id="8614778_1" index="1" disallow="tram rail_urban rail rail_electric rail_fast ship" speed="13.89" length="154.60" width="6.70" shape="574135.84,13718949.15 574162.96,13718992.36 574188.81,13719033.40 574218.98,13719079.56"/>
    </edge>

    <junction id="1697931355" type="priority" x="0.00" y="0.00" incLanes="157562752_0" intLanes=":1697931355_0_0" shape="0.00,-0.00 -3.02,1.05 0.00,0.00">
        <request index="0" response="0" foes="0" cont="0"/>
    </junction>
    <junction id="1697931360" type="priority" x="6657137.59" y="19089107.12" incLanes="-157562752_0" intLanes=":1697931360_0_0" shape="6657137.59,19089107.12 6657140.61,19089106.06 6657137.59,19089107.12">
        <request index="0" response="0" foes="0" cont="0"/>
    </junction>
    <junction id="61321502" type="dead_end" x="574221.78" y="13719077.72" incLanes="8614778_0 8614778_1" intLanes="" shape="574227.39,13719074.06 574216.17,13719081.39"/>
    <junction id="61330091" type="dead_end" x="574138.68" y="13718947.37" incLanes="" intLanes="" shape="574133.01,13718950.93 574144.36,13718943.80"/>

    <connection from="-157562752" to="157562752" fromLane="0" toLane="0" via=":1697931360_0_0" dir="t" state="M"/>
    <connection from="157562752" to="-157562752" fromLane="0" toLane="0" via=":1697931355_0_0" dir="t" state="M"/>

    <connection from=":1697931355_0" to="-157562752" fromLane="0" toLane="0" dir="t" state="M"/>
    <connection from=":1697931360_0" to="157562752" fromLane="0" toLane="0" dir="t" state="M"/>

</net>
