<?xml version="1.0"?>

<!-- generated on 01/12/11 13:07:14 by SUMO netconvert Version dev-SVN-r9534
<?xml version="1.0" encoding="iso-8859-1"?>

<configuration xmlns:xsi="http://www.w3.org/2001/XMLSchema-instance" xsi:noNamespaceSchemaLocation="http://sumo.sf.net/xsd/netconvertConfiguration.xsd">

    <input>
        <xml-node-files value="./dfrouter/flowmax/long_route/long.nod.xml"/>
        <xml-edge-files value="./dfrouter/flowmax/long_route/long.edg.xml"/>
    </input>

    <output>
        <output-file value="./dfrouter/flowmax/long_route/input_net.net.xml"/>
    </output>

    <report>
        <verbose value="true"/>
    </report>

</configuration>
-->

<net>

   <location netOffset="0.00,100.00" convBoundary="0.00,0.00,300.00,205.00" origBoundary="0.00,-100.00,300.00,105.00" projParameter="!"/>

   <edge id=":o3_0" function="internal">
      <lane id=":o3_0_0" depart="0" maxspeed="13.90" length="0.10" shape="201.65,200.00 201.65,200.00"/>
   </edge>
   <edge id=":o4_0" function="internal">
      <lane id=":o4_0_0" depart="0" maxspeed="13.90" length="0.10" shape="301.65,200.00 301.65,200.00"/>
   </edge>
   <edge id=":r1_0" function="internal">
      <lane id=":r1_0_0" depart="0" maxspeed="13.90" length="2.58" shape="1.65,96.75 1.75,97.45 2.05,97.95 2.55,98.25 3.25,98.35"/>
   </edge>
   <edge id=":r2_0" function="internal">
      <lane id=":r2_0_0" depart="0" maxspeed="13.90" length="5.00" shape="101.65,95.25 101.84,96.61 102.43,97.58 103.39,98.16 104.75,98.35"/>
   </edge>
   <edge id=":r2_1" function="internal">
      <lane id=":r2_1_0" depart="0" maxspeed="13.90" length="6.20" shape="98.55,98.35 104.75,98.35"/>
   </edge>
   <edge id=":r3_0" function="internal">
      <lane id=":r3_0_0" depart="0" maxspeed="13.90" length="6.20" shape="198.55,98.35 204.75,98.35"/>
   </edge>
   <edge id=":r3_1" function="internal">
      <lane id=":r3_1_0" depart="0" maxspeed="13.90" length="5.00" shape="198.55,98.35 199.91,98.54 200.88,99.13 201.46,100.09 201.65,101.45"/>
   </edge>
   <edge id=":r4_0" function="internal">
      <lane id=":r4_0_0" depart="0" maxspeed="13.90" length="2.58" shape="300.05,98.35 300.75,98.45 301.25,98.75 301.55,99.25 301.65,99.95"/>
   </edge>

   <edge id="1to2" from="r1" to="r2" priority="-1" type="" function="normal">
      <lane id="1to2_0" depart="1" maxspeed="13.90" length="95.30" shape="3.25,98.35 98.55,98.35"/>
   </edge>
   <edge id="2to3" from="r2" to="r3" priority="-1" type="" function="normal">
      <lane id="2to3_0" depart="1" maxspeed="13.90" length="93.80" shape="104.75,98.35 198.55,98.35"/>
   </edge>
   <edge id="3to4" from="r3" to="r4" priority="-1" type="" function="normal">
      <lane id="3to4_0" depart="1" maxspeed="13.90" length="95.30" shape="204.75,98.35 300.05,98.35"/>
   </edge>
   <edge id="in1" from="i1" to="r1" priority="-1" type="" function="normal">
      <lane id="in1_0" depart="1" maxspeed="13.90" length="96.75" shape="1.65,0.00 1.65,96.75"/>
   </edge>
   <edge id="in2" from="i2" to="r2" priority="-1" type="" function="normal">
      <lane id="in2_0" depart="1" maxspeed="13.90" length="95.25" shape="101.65,0.00 101.65,95.25"/>
   </edge>
   <edge id="out3" from="r3" to="o3" priority="-1" type="" function="normal">
      <lane id="out3_0" depart="1" maxspeed="13.90" length="98.55" shape="201.65,101.45 201.65,200.00"/>
   </edge>
   <edge id="out4" from="r4" to="o4" priority="-1" type="" function="normal">
      <lane id="out4_0" depart="1" maxspeed="13.90" length="100.05" shape="301.65,99.95 301.65,200.00"/>
   </edge>
   <edge id="post3" from="o3" to="p3" priority="-1" type="" function="normal">
      <lane id="post3_0" depart="1" maxspeed="13.90" length="5.00" shape="201.65,200.00 201.65,205.00"/>
   </edge>
   <edge id="post4" from="o4" to="p4" priority="-1" type="" function="normal">
      <lane id="post4_0" depart="1" maxspeed="13.90" length="5.00" shape="301.65,200.00 301.65,205.00"/>
   </edge>

   <row-logic id="o3" requestSize="1">
      <logicitem request="0" response="0" foes="0" cont="0"/>
   </row-logic>
   <row-logic id="o4" requestSize="1">
      <logicitem request="0" response="0" foes="0" cont="0"/>
   </row-logic>
   <row-logic id="r1" requestSize="1">
      <logicitem request="0" response="0" foes="0" cont="0"/>
   </row-logic>
   <row-logic id="r2" requestSize="2">
      <logicitem request="0" response="00" foes="10" cont="0"/>
      <logicitem request="1" response="01" foes="01" cont="0"/>
   </row-logic>
   <row-logic id="r3" requestSize="2">
      <logicitem request="0" response="00" foes="00" cont="0"/>
      <logicitem request="1" response="00" foes="00" cont="0"/>
   </row-logic>
   <row-logic id="r4" requestSize="1">
      <logicitem request="0" response="0" foes="0" cont="0"/>
   </row-logic>

   <junction id="i1" type="DEAD_END" x="0.00" y="0.00" incLanes="" intLanes="" shape="0.05,0.00 3.25,0.00"/>
   <junction id="i2" type="DEAD_END" x="100.00" y="0.00" incLanes="" intLanes="" shape="100.05,0.00 103.25,0.00"/>
   <junction id="o3" type="priority" x="200.00" y="200.00" incLanes="out3_0" intLanes=":o3_0_0" shape="200.05,200.00 203.25,200.00 200.05,200.00"/>
   <junction id="o4" type="priority" x="300.00" y="200.00" incLanes="out4_0" intLanes=":o4_0_0" shape="300.05,200.00 303.25,200.00 300.05,200.00"/>
   <junction id="p3" type="DEAD_END" x="200.00" y="205.00" incLanes="post3_0" intLanes="" shape="203.25,205.00 200.05,205.00"/>
   <junction id="p4" type="DEAD_END" x="300.00" y="205.00" incLanes="post4_0" intLanes="" shape="303.25,205.00 300.05,205.00"/>
   <junction id="r1" type="priority" x="0.00" y="100.00" incLanes="in1_0" intLanes=":r1_0_0" shape="3.25,99.95 3.25,96.75 0.05,96.75"/>
   <junction id="r2" type="priority" x="100.00" y="100.00" incLanes="in2_0 1to2_0" intLanes=":r2_0_0 :r2_1_0" shape="104.75,99.95 104.75,96.75 103.25,95.25 100.05,95.25 98.55,96.75 98.55,99.95"/>
   <junction id="r3" type="priority" x="200.00" y="100.00" incLanes="2to3_0" intLanes=":r3_0_0 :r3_1_0" shape="200.05,101.45 203.25,101.45 204.75,99.95 204.75,96.75 198.55,96.75 198.55,99.95"/>
   <junction id="r4" type="priority" x="300.00" y="100.00" incLanes="3to4_0" intLanes=":r4_0_0" shape="300.05,99.95 303.25,99.95 300.05,96.75 300.05,99.95"/>

   <succ edge="1to2" lane="1to2_0" junction="r2">
      <succlane lane="2to3_0" via=":r2_1_0" yield="1" dir="s" state="m"/>
   </succ>
   <succ edge="2to3" lane="2to3_0" junction="r3">
      <succlane lane="3to4_0" via=":r3_0_0" yield="0" dir="s" state="M"/>
      <succlane lane="out3_0" via=":r3_1_0" yield="0" dir="l" state="M"/>
   </succ>
   <succ edge="3to4" lane="3to4_0" junction="r4">
      <succlane lane="out4_0" via=":r4_0_0" yield="0" dir="l" state="M"/>
   </succ>
   <succ edge="in1" lane="in1_0" junction="r1">
      <succlane lane="1to2_0" via=":r1_0_0" yield="0" dir="r" state="M"/>
   </succ>
   <succ edge="in2" lane="in2_0" junction="r2">
      <succlane lane="2to3_0" via=":r2_0_0" yield="0" dir="r" state="M"/>
   </succ>
   <succ edge="out3" lane="out3_0" junction="o3">
      <succlane lane="post3_0" via=":o3_0_0" yield="0" dir="s" state="M"/>
   </succ>
   <succ edge="out4" lane="out4_0" junction="o4">
      <succlane lane="post4_0" via=":o4_0_0" yield="0" dir="s" state="M"/>
   </succ>
   <succ edge="post3" lane="post3_0" junction="p3">
      <succlane lane="SUMO_NO_DESTINATION" yield="1" dir="s" state="O"/>
   </succ>
   <succ edge="post4" lane="post4_0" junction="p4">
      <succlane lane="SUMO_NO_DESTINATION" yield="1" dir="s" state="O"/>
   </succ>

   <succ edge=":o3_0" lane=":o3_0_0" junction="o3">
      <succlane lane="post3_0" tl="" linkno="" yield="0" dir="s" state="M"/>
   </succ>
   <succ edge=":o4_0" lane=":o4_0_0" junction="o4">
      <succlane lane="post4_0" tl="" linkno="" yield="0" dir="s" state="M"/>
   </succ>
   <succ edge=":r1_0" lane=":r1_0_0" junction="r1">
      <succlane lane="1to2_0" tl="" linkno="" yield="0" dir="s" state="M"/>
   </succ>
   <succ edge=":r2_0" lane=":r2_0_0" junction="r2">
      <succlane lane="2to3_0" tl="" linkno="" yield="0" dir="s" state="M"/>
   </succ>
   <succ edge=":r2_1" lane=":r2_1_0" junction="r2">
      <succlane lane="2to3_0" tl="" linkno="" yield="0" dir="s" state="M"/>
   </succ>
   <succ edge=":r3_0" lane=":r3_0_0" junction="r3">
      <succlane lane="3to4_0" tl="" linkno="" yield="0" dir="s" state="M"/>
   </succ>
   <succ edge=":r3_1" lane=":r3_1_0" junction="r3">
      <succlane lane="out3_0" tl="" linkno="" yield="0" dir="s" state="M"/>
   </succ>
   <succ edge=":r4_0" lane=":r4_0_0" junction="r4">
      <succlane lane="out4_0" tl="" linkno="" yield="0" dir="s" state="M"/>
   </succ>

</net>
