<edges>

   <edge id="in1" fromnode="i1" tonode="r1" />
   <edge id="in2" fromnode="i2" tonode="r2" />
   <edge id="1to2" fromnode="r1" tonode="r2" />
   <edge id="2to3" fromnode="r2" tonode="r3" />
   <edge id="3to4" fromnode="r3" tonode="r4" />
   <edge id="out3" fromnode="r3" tonode="o3" />
   <edge id="out4" fromnode="r4" tonode="o4" />
   <edge id="post3" fromnode="o3" tonode="p3" />
   <edge id="post4" fromnode="o4" tonode="p4" />

</edges>
