<?xml version="1.0"?>

<!-- generated on 09/03/07 14:44:47 by SUMO sumo Version 0.9.6
<configuration>

   <input>
      <net-file>net.net.xml</net-file>
      <route-files>input_routes.rou.xml</route-files>
      <additional-files>input_additional.add.xml</additional-files>
   </input>

   <time>
      <begin>0</begin>
      <end>200</end>
   </time>

   <processing>
      <no-duration-log>true</no-duration-log>
      <no-step-log>true</no-step-log>
   </processing>

</configuration>
-->

<tls-switches>
   <tlsswitch tls="0" subid="default" fromLane="4si_0" toLane="1o_0" begin="0" end="20" duration="20"/>
   <tlsswitch tls="0" subid="default" fromLane="4si_1" toLane="3o_0" begin="0" end="20" duration="20"/>
   <tlsswitch tls="0" subid="default" fromLane="3si_0" toLane="2o_0" begin="0" end="20" duration="20"/>
   <tlsswitch tls="0" subid="default" fromLane="3si_1" toLane="4o_0" begin="0" end="20" duration="20"/>
   <tlsswitch tls="0" subid="default" fromLane="4si_2" toLane="2o_0" begin="0" end="27" duration="27"/>
   <tlsswitch tls="0" subid="default" fromLane="4si_2" toLane="4o_0" begin="0" end="27" duration="27"/>
   <tlsswitch tls="0" subid="default" fromLane="3si_2" toLane="1o_0" begin="0" end="27" duration="27"/>
   <tlsswitch tls="0" subid="default" fromLane="3si_2" toLane="3o_0" begin="0" end="27" duration="27"/>
   <tlsswitch tls="0" subid="default" fromLane="2si_0" toLane="4o_0" begin="31" end="51" duration="20"/>
   <tlsswitch tls="0" subid="default" fromLane="2si_1" toLane="1o_0" begin="31" end="51" duration="20"/>
   <tlsswitch tls="0" subid="default" fromLane="1si_0" toLane="3o_0" begin="31" end="51" duration="20"/>
   <tlsswitch tls="0" subid="default" fromLane="1si_1" toLane="2o_0" begin="31" end="51" duration="20"/>
   <tlsswitch tls="0" subid="default" fromLane="2si_2" toLane="3o_0" begin="31" end="58" duration="27"/>
   <tlsswitch tls="0" subid="default" fromLane="2si_2" toLane="2o_0" begin="31" end="58" duration="27"/>
   <tlsswitch tls="0" subid="default" fromLane="1si_2" toLane="4o_0" begin="31" end="58" duration="27"/>
   <tlsswitch tls="0" subid="default" fromLane="1si_2" toLane="1o_0" begin="31" end="58" duration="27"/>
   <tlsswitch tls="0" subid="default" fromLane="4si_0" toLane="1o_0" begin="62" end="82" duration="20"/>
   <tlsswitch tls="0" subid="default" fromLane="4si_1" toLane="3o_0" begin="62" end="82" duration="20"/>
   <tlsswitch tls="0" subid="default" fromLane="3si_0" toLane="2o_0" begin="62" end="82" duration="20"/>
   <tlsswitch tls="0" subid="default" fromLane="3si_1" toLane="4o_0" begin="62" end="82" duration="20"/>
   <tlsswitch tls="0" subid="default" fromLane="4si_2" toLane="2o_0" begin="62" end="89" duration="27"/>
   <tlsswitch tls="0" subid="default" fromLane="4si_2" toLane="4o_0" begin="62" end="89" duration="27"/>
   <tlsswitch tls="0" subid="default" fromLane="3si_2" toLane="1o_0" begin="62" end="89" duration="27"/>
   <tlsswitch tls="0" subid="default" fromLane="3si_2" toLane="3o_0" begin="62" end="89" duration="27"/>
   <tlsswitch tls="0" subid="default" fromLane="2si_0" toLane="4o_0" begin="93" end="113" duration="20"/>
   <tlsswitch tls="0" subid="default" fromLane="2si_1" toLane="1o_0" begin="93" end="113" duration="20"/>
   <tlsswitch tls="0" subid="default" fromLane="1si_0" toLane="3o_0" begin="93" end="113" duration="20"/>
   <tlsswitch tls="0" subid="default" fromLane="1si_1" toLane="2o_0" begin="93" end="113" duration="20"/>
   <tlsswitch tls="0" subid="default" fromLane="2si_2" toLane="3o_0" begin="93" end="120" duration="27"/>
   <tlsswitch tls="0" subid="default" fromLane="2si_2" toLane="2o_0" begin="93" end="120" duration="27"/>
   <tlsswitch tls="0" subid="default" fromLane="1si_2" toLane="4o_0" begin="93" end="120" duration="27"/>
   <tlsswitch tls="0" subid="default" fromLane="1si_2" toLane="1o_0" begin="93" end="120" duration="27"/>
   <tlsswitch tls="0" subid="default" fromLane="4si_0" toLane="1o_0" begin="124" end="144" duration="20"/>
   <tlsswitch tls="0" subid="default" fromLane="4si_1" toLane="3o_0" begin="124" end="144" duration="20"/>
   <tlsswitch tls="0" subid="default" fromLane="3si_0" toLane="2o_0" begin="124" end="144" duration="20"/>
   <tlsswitch tls="0" subid="default" fromLane="3si_1" toLane="4o_0" begin="124" end="144" duration="20"/>
   <tlsswitch tls="0" subid="default" fromLane="4si_2" toLane="2o_0" begin="124" end="151" duration="27"/>
   <tlsswitch tls="0" subid="default" fromLane="4si_2" toLane="4o_0" begin="124" end="151" duration="27"/>
   <tlsswitch tls="0" subid="default" fromLane="3si_2" toLane="1o_0" begin="124" end="151" duration="27"/>
   <tlsswitch tls="0" subid="default" fromLane="3si_2" toLane="3o_0" begin="124" end="151" duration="27"/>
   <tlsswitch tls="0" subid="default" fromLane="2si_0" toLane="4o_0" begin="155" end="175" duration="20"/>
   <tlsswitch tls="0" subid="default" fromLane="2si_1" toLane="1o_0" begin="155" end="175" duration="20"/>
   <tlsswitch tls="0" subid="default" fromLane="1si_0" toLane="3o_0" begin="155" end="175" duration="20"/>
   <tlsswitch tls="0" subid="default" fromLane="1si_1" toLane="2o_0" begin="155" end="175" duration="20"/>
   <tlsswitch tls="0" subid="default" fromLane="2si_2" toLane="3o_0" begin="155" end="182" duration="27"/>
   <tlsswitch tls="0" subid="default" fromLane="2si_2" toLane="2o_0" begin="155" end="182" duration="27"/>
   <tlsswitch tls="0" subid="default" fromLane="1si_2" toLane="4o_0" begin="155" end="182" duration="27"/>
   <tlsswitch tls="0" subid="default" fromLane="1si_2" toLane="1o_0" begin="155" end="182" duration="27"/>
</tls-switches>
