<routes xmlns:xsi="http://www.w3.org/2001/XMLSchema-instance" xsi:noNamespaceSchemaLocation="http://sumo.dlr.de/xsd/routes_file.xsd">
    <vType id="t1" sigma="0"/>
    <trip id="v0" depart="0" from="onRamp" to="end3" type="t1"/>
</routes>
