<?xml version="1.0" encoding="UTF-8"?>

<!-- generated on 2022-02-07 09:49:46 by Eclipse SUMO netedit Version v1_12_0+0293-22171d7ea39
-->

<additional xmlns:xsi="http://www.w3.org/2001/XMLSchema-instance" xsi:noNamespaceSchemaLocation="http://sumo.dlr.de/xsd/additional_file.xsd">
    <e1Detector id="e1Detector_gneE1_0_6" lane="gneE1_0" pos="41.50" freq="100.00" file="e1Detector_gneE1_0_6.txt"/>
    <e1Detector id="e1_7" lane="gneE0_0" pos="14.77" freq="100.00" file="e1_7.txt"/>
</additional>
