<?xml version="1.0" encoding="UTF-8"?>

<!-- generated on 2021-06-15 14:09:10 by Eclipse SUMO netedit Version v1_9_2+0562-734b028973
<configuration xmlns:xsi="http://www.w3.org/2001/XMLSchema-instance" xsi:noNamespaceSchemaLocation="http://sumo.dlr.de/xsd/netconvertConfiguration.xsd">

    <input>
        <sumo-net-file value="C:\Users\SUMO-Test\.texttest\tmp\netedit.gui.1_from_15Jun133253.3116\netedit.gui\additionalElements\e1detector\volatileRecomputing\input_net.net.xml"/>
    </input>

    <output>
        <output-file value="C:\Users\SUMO-Test\.texttest\tmp\netedit.gui.1_from_15Jun133253.3116\netedit.gui\additionalElements\e1detector\volatileRecomputing\net.net.xml"/>
    </output>

    <processing>
        <geometry.min-radius.fix.railways value="false"/>
        <geometry.max-grade.fix value="false"/>
        <offset.disable-normalization value="true"/>
        <lefthand value="false"/>
    </processing>

    <junctions>
        <no-turnarounds value="true"/>
        <junctions.corner-detail value="5"/>
        <junctions.limit-turn-speed value="5.5"/>
        <rectangular-lane-cut value="false"/>
    </junctions>

    <pedestrian>
        <sidewalks.guess value="true"/>
        <crossings.guess value="true"/>
        <walkingareas value="false"/>
    </pedestrian>

    <netedit>
        <additional-files value="C:\Users\SUMO-Test\.texttest\tmp\netedit.gui.1_from_15Jun133253.3116\netedit.gui\additionalElements\e1detector\volatileRecomputing\additionals.xml"/>
        <additionals-output value="C:\Users\SUMO-Test\.texttest\tmp\netedit.gui.1_from_15Jun133253.3116\netedit.gui\additionalElements\e1detector\volatileRecomputing\additionals.xml"/>
        <route-files value="C:\Users\SUMO-Test\.texttest\tmp\netedit.gui.1_from_15Jun133253.3116\netedit.gui\additionalElements\e1detector\volatileRecomputing\routes.xml"/>
        <demandelements-output value="C:\Users\SUMO-Test\.texttest\tmp\netedit.gui.1_from_15Jun133253.3116\netedit.gui\additionalElements\e1detector\volatileRecomputing\routes.xml"/>
        <data-files value="C:\Users\SUMO-Test\.texttest\tmp\netedit.gui.1_from_15Jun133253.3116\netedit.gui\additionalElements\e1detector\volatileRecomputing\datas.xml"/>
        <dataelements-output value="C:\Users\SUMO-Test\.texttest\tmp\netedit.gui.1_from_15Jun133253.3116\netedit.gui\additionalElements\e1detector\volatileRecomputing\datas.xml"/>
    </netedit>

    <visualisation>
        <gui-settings-file value="C:\Users\SUMO-Test\.texttest\tmp\netedit.gui.1_from_15Jun133253.3116\netedit.gui\additionalElements\e1detector\volatileRecomputing\gui-settings.xml"/>
        <window-size value="936,697"/>
        <window-pos value="50,50"/>
        <gui-testing value="true"/>
        <gui-testing-debug value="true"/>
        <gui-testing-debug-gl value="true"/>
        <gui-testing.setting-output value="C:\Users\SUMO-Test\.texttest\tmp\netedit.gui.1_from_15Jun133253.3116\netedit.gui\additionalElements\e1detector\volatileRecomputing\guisettingsoutput.xml"/>
    </visualisation>

    <report>
        <no-warnings value="true"/>
        <aggregate-warnings value="5"/>
        <error-log value="C:\Users\SUMO-Test\.texttest\tmp\netedit.gui.1_from_15Jun133253.3116\netedit.gui\additionalElements\e1detector\volatileRecomputing\log.txt"/>
    </report>

</configuration>
-->

<additional xmlns:xsi="http://www.w3.org/2001/XMLSchema-instance" xsi:noNamespaceSchemaLocation="http://sumo.dlr.de/xsd/additional_file.xsd">
    <e1Detector id="e1_7" lane="gneE0_0" pos="14.77" freq="100.00" file="e1_7.txt"/>
    <e1Detector id="e1Detector_gneE1_0_6" lane="gneE1_0" pos="41.50" freq="100.00" file="e1Detector_gneE1_0_6.txt"/>
</additional>
