<?xml version="1.0" encoding="UTF-8"?>

<!-- generated on 2022-06-03 16:20:51 by Eclipse SUMO netedit Version v1_13_0+0610-e5b7f68bfcb
-->

<additional xmlns:xsi="http://www.w3.org/2001/XMLSchema-instance" xsi:noNamespaceSchemaLocation="http://sumo.dlr.de/xsd/additional_file.xsd">
    <!-- Detectors -->
    <inductionLoop id="inductionLoop_gneE1_0_6" lane="gneE1_0" pos="41.50" period="100.00" file="inductionLoop_gneE1_0_6.txt"/>
    <inductionLoop id="e1_7" lane="gneE0_0" pos="14.77" period="100.00" file="e1_7.txt"/>
</additional>
