<?xml version="1.0" encoding="UTF-8"?>

<!-- generated on 2021-11-18 10:27:33 by Eclipse SUMO netedit Version v1_10_0+2392-e12c4deaa57
<configuration xmlns:xsi="http://www.w3.org/2001/XMLSchema-instance" xsi:noNamespaceSchemaLocation="http://sumo.dlr.de/xsd/netconvertConfiguration.xsd">

    <input>
        <sumo-net-file value="C:\Users\alva_pa\.texttest\tmp\netedit.gui.18Nov102519.21232\netedit.gui\additionalElements\parkingspace\inspect\width\input_net.net.xml"/>
    </input>

    <output>
        <output-file value="C:\Users\alva_pa\.texttest\tmp\netedit.gui.18Nov102519.21232\netedit.gui\additionalElements\parkingspace\inspect\width\net.net.xml"/>
    </output>

    <processing>
        <geometry.min-radius.fix.railways value="false"/>
        <geometry.max-grade.fix value="false"/>
        <offset.disable-normalization value="true"/>
        <lefthand value="false"/>
    </processing>

    <junctions>
        <no-internal-links value="false"/>
        <no-turnarounds value="true"/>
        <junctions.corner-detail value="5"/>
        <junctions.limit-turn-speed value="5.5"/>
        <rectangular-lane-cut value="false"/>
    </junctions>

    <pedestrian>
        <walkingareas value="false"/>
    </pedestrian>

    <netedit>
        <additional-files value="C:\Users\alva_pa\.texttest\tmp\netedit.gui.18Nov102519.21232\netedit.gui\additionalElements\parkingspace\inspect\width\additionals.xml"/>
        <additionals-output value="C:\Users\alva_pa\.texttest\tmp\netedit.gui.18Nov102519.21232\netedit.gui\additionalElements\parkingspace\inspect\width\additionals.xml"/>
        <route-files value="C:\Users\alva_pa\.texttest\tmp\netedit.gui.18Nov102519.21232\netedit.gui\additionalElements\parkingspace\inspect\width\routes.xml"/>
        <demandelements-output value="C:\Users\alva_pa\.texttest\tmp\netedit.gui.18Nov102519.21232\netedit.gui\additionalElements\parkingspace\inspect\width\routes.xml"/>
        <data-files value="C:\Users\alva_pa\.texttest\tmp\netedit.gui.18Nov102519.21232\netedit.gui\additionalElements\parkingspace\inspect\width\datas.xml"/>
        <dataelements-output value="C:\Users\alva_pa\.texttest\tmp\netedit.gui.18Nov102519.21232\netedit.gui\additionalElements\parkingspace\inspect\width\datas.xml"/>
    </netedit>

    <visualisation>
        <gui-settings-file value="C:\Users\alva_pa\.texttest\tmp\netedit.gui.18Nov102519.21232\netedit.gui\additionalElements\parkingspace\inspect\width\gui-settings.xml"/>
        <window-size value="936,697"/>
        <window-pos value="50,50"/>
        <gui-testing value="true"/>
        <gui-testing-debug value="true"/>
        <gui-testing-debug-gl value="true"/>
        <gui-testing.setting-output value="C:\Users\alva_pa\.texttest\tmp\netedit.gui.18Nov102519.21232\netedit.gui\additionalElements\parkingspace\inspect\width\guisettingsoutput.xml"/>
    </visualisation>

    <report>
        <no-warnings value="true"/>
        <aggregate-warnings value="5"/>
        <error-log value="C:\Users\alva_pa\.texttest\tmp\netedit.gui.18Nov102519.21232\netedit.gui\additionalElements\parkingspace\inspect\width\log.txt"/>
    </report>

</configuration>
-->

<additional xmlns:xsi="http://www.w3.org/2001/XMLSchema-instance" xsi:noNamespaceSchemaLocation="http://sumo.dlr.de/xsd/additional_file.xsd">
    <parkingArea id="parkingArea_gneE2_0_0" lane="gneE2_0" startPos="15.00" endPos="25.00">
        <space x="15.00" y="5.00" width="2.3"/>
    </parkingArea>
</additional>
