<additional>
	<vType id="0" vClass="bus"/>
</additional>
