<routes xmlns:xsi="http://www.w3.org/2001/XMLSchema-instance" xsi:noNamespaceSchemaLocation="http://sumo-sim.org/xsd/routes_file.xsd">
    <vType id="DEFAULT_VEHTYPE" accel="0.8" decel="4.5" sigma="0" length="3" minGap="2" maxSpeed="10"/>
    <route id="r1" edges="4/1to3/1 3/1to2/1 2/1to1/1 1/1to0/1"/>
    <vehicle id="0" depart="0" departSpeed="10" departPos="0" route="r1"/>
    <vehicle id="1" depart="2" departSpeed="10" departPos="0" route="r1"/>
    <vehicle id="2" depart="3" departSpeed="10" departPos="0" route="r1"/>
    <vehicle id="3" depart="4" departSpeed="10" departPos="0" route="r1"/>
    <vehicle id="4" depart="5" departSpeed="10" departPos="0" route="r1"/>
    <vehicle id="5" depart="6" departSpeed="10" departPos="0" route="r1"/>
    <vehicle id="6" depart="7" departSpeed="10" departPos="0" route="r1"/>
    <vehicle id="7" depart="8" departSpeed="10" departPos="0" route="r1"/>
    <vehicle id="8" depart="9" departSpeed="10" departPos="0" route="r1"/>
    <vehicle id="9" depart="10" departSpeed="10" departPos="0" route="r1"/>
    <vehicle id="10" depart="11" departSpeed="10" departPos="0" route="r1"/>
</routes>
