<?xml version="1.0" encoding="UTF-8"?>

<!-- generated on 2022-03-04 11:04:54 by Eclipse SUMO netedit Version v1_12_0+1137-e9106068858
-->

<additional xmlns:xsi="http://www.w3.org/2001/XMLSchema-instance" xsi:noNamespaceSchemaLocation="http://sumo.dlr.de/xsd/additional_file.xsd">
    <!-- Detectors -->
    <e2Detector id="e2MultilaneDetector_0" lanes="gneE2_0 gneE3_0" pos="15.00" endPos="15.00" freq="900.00" file="e2MultilaneDetector_0.xml"/>
    <e2Detector id="e2MultilaneDetector_2" lanes="gneE2_0 gneE3_0" pos="15.00" endPos="15.00" freq="900.00" file="e2MultilaneDetector_2.xml"/>
    <e2Detector id="e2MultilaneDetector_3" lanes="gneE2_0 gneE3_0" pos="15.00" endPos="15.00" freq="900.00" file="e2MultilaneDetector_3.xml" friendlyPos="1"/>
</additional>
