<?xml version="1.0" encoding="UTF-8"?>

<!-- generated on 26.08.2020 15:03:22 by Eclipse SUMO netedit Version v1_6_0+1769-10a6440831
<configuration xmlns:xsi="http://www.w3.org/2001/XMLSchema-instance" xsi:noNamespaceSchemaLocation="http://sumo.dlr.de/xsd/netconvertConfiguration.xsd">

    <input>
        <sumo-net-file value="C:\Users\alva_pa\.texttest\tmp\netedit.gui.26Aug150146.8112\netedit.gui\additionalElements\e2detector\create\freq\input_net.net.xml"/>
    </input>

    <output>
        <output-file value="C:\Users\alva_pa\.texttest\tmp\netedit.gui.26Aug150146.8112\netedit.gui\additionalElements\e2detector\create\freq\net.net.xml"/>
    </output>

    <processing>
        <geometry.min-radius.fix.railways value="false"/>
        <geometry.max-grade.fix value="false"/>
        <offset.disable-normalization value="true"/>
        <lefthand value="false"/>
    </processing>

    <junctions>
        <no-turnarounds value="true"/>
        <junctions.corner-detail value="5"/>
        <junctions.limit-turn-speed value="5.5"/>
        <rectangular-lane-cut value="false"/>
    </junctions>

    <pedestrian>
        <walkingareas value="false"/>
    </pedestrian>

    <netedit>
        <additional-files value="C:\Users\alva_pa\.texttest\tmp\netedit.gui.26Aug150146.8112\netedit.gui\additionalElements\e2detector\create\freq\additionals.xml"/>
        <additionals-output value="C:\Users\alva_pa\.texttest\tmp\netedit.gui.26Aug150146.8112\netedit.gui\additionalElements\e2detector\create\freq\additionals.xml"/>
        <route-files value="C:\Users\alva_pa\.texttest\tmp\netedit.gui.26Aug150146.8112\netedit.gui\additionalElements\e2detector\create\freq\routes.xml"/>
        <demandelements-output value="C:\Users\alva_pa\.texttest\tmp\netedit.gui.26Aug150146.8112\netedit.gui\additionalElements\e2detector\create\freq\routes.xml"/>
        <data-files value="C:\Users\alva_pa\.texttest\tmp\netedit.gui.26Aug150146.8112\netedit.gui\additionalElements\e2detector\create\freq\datas.xml"/>
        <dataelements-output value="C:\Users\alva_pa\.texttest\tmp\netedit.gui.26Aug150146.8112\netedit.gui\additionalElements\e2detector\create\freq\datas.xml"/>
    </netedit>

    <visualisation>
        <gui-settings-file value="C:\Users\alva_pa\.texttest\tmp\netedit.gui.26Aug150146.8112\netedit.gui\additionalElements\e2detector\create\freq\gui-settings.xml"/>
        <window-size value="700,500"/>
        <window-pos value="50,50"/>
        <gui-testing value="true"/>
        <gui-testing-debug value="true"/>
        <gui-testing.setting-output value="C:\Users\alva_pa\.texttest\tmp\netedit.gui.26Aug150146.8112\netedit.gui\additionalElements\e2detector\create\freq\guisettingsoutput.xml"/>
    </visualisation>

    <report>
        <no-warnings value="true"/>
        <aggregate-warnings value="5"/>
        <error-log value="C:\Users\alva_pa\.texttest\tmp\netedit.gui.26Aug150146.8112\netedit.gui\additionalElements\e2detector\create\freq\log.txt"/>
    </report>

</configuration>
-->

<additional xmlns:xsi="http://www.w3.org/2001/XMLSchema-instance" xsi:noNamespaceSchemaLocation="http://sumo.dlr.de/xsd/additional_file.xsd">
    <e2Detector id="e2Detector_gneE0_0_0" lane="gneE0_0" pos="28.00" length="10.00" freq="dummyFreq" file="e2Detector_gneE0_0_0.xml"/>
    <e2Detector id="e2Detector_gneE0_0_1" lane="gneE0_0" pos="28.00" length="10.00" freq="-30" file="e2Detector_gneE0_0_1.xml"/>
    <e2Detector id="e2Detector_gneE0_0_2" lane="gneE0_0" pos="28.00" length="10.00" freq="120.5" file="e2Detector_gneE0_0_2.xml"/>
</additional>
