<?xml version="1.0" encoding="UTF-8"?>

<!-- generated on 2024-08-01 08:49:13 by Eclipse SUMO netedit Version v1_20_0+1505-e42de78eb67
<neteditConfiguration xmlns:xsi="http://www.w3.org/2001/XMLSchema-instance" xsi:noNamespaceSchemaLocation="http://sumo.dlr.de/xsd/neteditConfiguration.xsd">

    <input>
        <sumo-net-file value="D:\Netedit_dev\tests\netedit\network\connections\without_tls\net.net.xml"/>
    </input>

    <processing>
        <geometry.min-radius.fix.railways value="false"/>
        <geometry.max-grade.fix value="false"/>
        <offset.disable-normalization value="true"/>
        <lefthand value="0"/>
    </processing>

    <junctions>
        <no-turnarounds value="true"/>
        <junctions.corner-detail value="5"/>
        <junctions.limit-turn-speed value="5.50"/>
        <rectangular-lane-cut value="0"/>
    </junctions>

    <pedestrian>
        <walkingareas value="0"/>
    </pedestrian>

</neteditConfiguration>
-->

<connections version="1.20" xmlns:xsi="http://www.w3.org/2001/XMLSchema-instance" xsi:noNamespaceSchemaLocation="http://sumo.dlr.de/xsd/connections_file.xsd">
    <connection from="-E0" to="E3" fromLane="0" toLane="0" pass="1" keepClear="0" changeLeft="private authority army vip pedestrian passenger hov taxi bus coach delivery motorcycle moped bicycle evehicle tram rail_urban rail rail_electric rail_fast ship container cable_car subway aircraft wheelchair scooter drone custom1 custom2" changeRight="private emergency pedestrian passenger hov taxi bus coach delivery truck trailer motorcycle moped bicycle evehicle tram rail_urban rail rail_electric rail_fast ship cable_car subway aircraft wheelchair scooter drone custom1 custom2" speed="15.00" length="6.00" shape="-1.50,7.00 -2.00,5.00 0.00,5.00 0.00,3.00 -2.00,3.00 -2.00,-3.00 0.00,-3.00 0.00,-5.00 -2.00,-5.00 -1.50,-7.00" uncontrolled="1" indirect="1" type="custom" visibility="2.00"/>

    <connection from="-E1" to="E2" fromLane="0" toLane="0"/>

    <connection from="-E2" to="E1" fromLane="0" toLane="0"/>

    <connection from="-E3" to="E0" fromLane="0" toLane="0"/>

    <connection from="E0"/>

    <connection from="E1"/>

    <connection from="E2"/>

    <connection from="E3"/>

    <connection from="EdgeExternBot" to="EdgeExternTop" fromLane="0" toLane="0"/>

    <connection from="EdgeExternTop" to="EdgeExternBot" fromLane="0" toLane="0"/>

</connections>
