<?xml version="1.0" encoding="UTF-8"?>

<!-- generated on Sun Nov 11 15:03:01 2018 by Eclipse SUMO Version v1_0_1+0610-1037adc
This data file and the accompanying materials
are made available under the terms of the Eclipse Public License v2.0
which accompanies this distribution, and is available at
http://www.eclipse.org/legal/epl-v20.html
SPDX-License-Identifier: EPL-2.0
<configuration xmlns:xsi="http://www.w3.org/2001/XMLSchema-instance" xsi:noNamespaceSchemaLocation="http://sumo.dlr.de/xsd/sumoConfiguration.xsd">

    <input>
        <net-file value="net.net.xml"/>
        <route-files value="input_routes.rou.xml"/>
        <additional-files value="input_additional.add.xml"/>
    </input>

    <output>
        <write-license value="true"/>
        <battery-output value="battery.xml"/>
        <battery-output.precision value="4"/>
        <chargingstations-output value="chargingstations.xml"/>
    </output>

    <processing>
        <default.speeddev value="0"/>
        <pedestrian.model value="nonInteracting"/>
    </processing>

    <report>
        <xml-validation value="never"/>
        <duration-log.disable value="true"/>
        <no-step-log value="true"/>
    </report>

    <battery>
        <device.battery.probability value="1"/>
    </battery>

    <mesoscopic>
        <mesosim value="true"/>
    </mesoscopic>

</configuration>
-->

<chargingstations-export>
    <chargingStation id="cS_17to2_0a" totalEnergyCharged="0.00" chargingSteps="0"/>
    <chargingStation id="cS_17to2_1a" totalEnergyCharged="0.00" chargingSteps="0"/>
    <chargingStation id="cS_2to19_0a" totalEnergyCharged="0.00" chargingSteps="0"/>
</chargingstations-export>
