<?xml version="1.0"?>

<!-- generated on Mon Mar 21 15:37:51 2011 by SUMO netconvert Version dev-SVN-r9933
<?xml version="1.0" encoding="iso-8859-1"?>

<configuration xmlns:xsi="http://www.w3.org/2001/XMLSchema-instance" xsi:noNamespaceSchemaLocation="http://sumo.sf.net/xsd/netconvertConfiguration.xsd">

    <input>
        <sumo-net value="input_net.net.xml"/>
    </input>

    <output>
        <output-file value="net.net.xml"/>
        <plain-output value="plain"/>
    </output>

    <processing>
        <disable-normalize-node-positions value="true"/>
    </processing>

</configuration>
-->

<net>

   <location netOffset="0.00,0.00" convBoundary="-30.00,0.00,30.00,30.00" origBoundary="-30.00,0.00,30.00,30.00" projParameter="!"/>

   <edge id=":node_centertl_0" function="internal">
      <lanes>
         <lane id=":node_centertl_0_0" depart="0" maxspeed="10.00" length="5.00" shape="-1.65,4.75 -1.84,3.39 -2.42,2.43 -3.39,1.84 -4.75,1.65"/>
      </lanes>
   </edge>
   <edge id=":node_centertl_1" function="internal">
      <lanes>
         <lane id=":node_centertl_1_0" depart="0" maxspeed="10.00" length="3.18" shape="-1.65,4.75 -0.23,0.25"/>
      </lanes>
   </edge>
   <edge id=":node_centertl_9" function="internal">
      <lanes>
         <lane id=":node_centertl_9_0" depart="0" maxspeed="10.00" length="7.14" shape="-0.23,0.25 -0.05,-0.05 1.95,-1.25 4.75,-1.65"/>
      </lanes>
   </edge>
   <edge id=":node_centertl_2" function="internal">
      <lanes>
         <lane id=":node_centertl_2_0" depart="0" maxspeed="10.00" length="0.10" shape="-1.65,4.75 -0.88,3.60"/>
      </lanes>
   </edge>
   <edge id=":node_centertl_10" function="internal">
      <lanes>
         <lane id=":node_centertl_10_0" depart="0" maxspeed="10.00" length="4.72" shape="-0.88,3.60 -0.83,3.51 -0.00,3.10 0.82,3.51 1.65,4.75"/>
      </lanes>
   </edge>
   <edge id=":node_centertl_3" function="internal">
      <lanes>
         <lane id=":node_centertl_3_0" depart="0" maxspeed="10.00" length="5.00" shape="4.75,1.65 3.39,1.84 2.43,2.42 1.84,3.39 1.65,4.75"/>
      </lanes>
   </edge>
   <edge id=":node_centertl_4" function="internal">
      <lanes>
         <lane id=":node_centertl_4_0" depart="0" maxspeed="10.00" length="9.50" shape="4.75,1.65 -4.75,1.65"/>
      </lanes>
   </edge>
   <edge id=":node_centertl_5" function="internal">
      <lanes>
         <lane id=":node_centertl_5_0" depart="0" maxspeed="10.00" length="0.10" shape="4.75,1.65 3.60,0.88"/>
      </lanes>
   </edge>
   <edge id=":node_centertl_11" function="internal">
      <lanes>
         <lane id=":node_centertl_11_0" depart="0" maxspeed="10.00" length="4.72" shape="3.60,0.88 3.51,0.83 3.10,0.00 3.51,-0.82 4.75,-1.65"/>
      </lanes>
   </edge>
   <edge id=":node_centertl_6" function="internal">
      <lanes>
         <lane id=":node_centertl_6_0" depart="0" maxspeed="10.00" length="9.50" shape="-4.75,-1.65 4.75,-1.65"/>
      </lanes>
   </edge>
   <edge id=":node_centertl_7" function="internal">
      <lanes>
         <lane id=":node_centertl_7_0" depart="0" maxspeed="10.00" length="7.14" shape="-4.75,-1.65 -1.95,-1.25 0.23,0.25"/>
      </lanes>
   </edge>
   <edge id=":node_centertl_12" function="internal">
      <lanes>
         <lane id=":node_centertl_12_0" depart="0" maxspeed="10.00" length="3.18" shape="0.23,0.25 1.25,1.95 1.65,4.75"/>
      </lanes>
   </edge>
   <edge id=":node_centertl_8" function="internal">
      <lanes>
         <lane id=":node_centertl_8_0" depart="0" maxspeed="10.00" length="0.10" shape="-4.75,-1.65 -3.60,-0.88"/>
      </lanes>
   </edge>
   <edge id=":node_centertl_13" function="internal">
      <lanes>
         <lane id=":node_centertl_13_0" depart="0" maxspeed="10.00" length="4.72" shape="-3.60,-0.88 -3.51,-0.83 -3.10,-0.00 -3.51,0.82 -4.75,1.65"/>
      </lanes>
   </edge>
   <edge id=":node_left_0" function="internal">
      <lanes>
         <lane id=":node_left_0_0" depart="0" maxspeed="10.00" length="4.82" shape="-30.00,1.65 -31.24,0.83 -31.65,0.00 -31.24,-0.82 -30.00,-1.65"/>
      </lanes>
   </edge>
   <edge id=":node_right_0" function="internal">
      <lanes>
         <lane id=":node_right_0_0" depart="0" maxspeed="10.00" length="4.82" shape="30.00,-1.65 31.24,-0.83 31.65,-0.00 31.24,0.82 30.00,1.65"/>
      </lanes>
   </edge>
   <edge id=":node_up_0" function="internal">
      <lanes>
         <lane id=":node_up_0_0" depart="0" maxspeed="10.00" length="4.82" shape="1.65,30.00 0.83,31.24 0.00,31.65 -0.82,31.24 -1.65,30.00"/>
      </lanes>
   </edge>

   <edge id="-edge_left" from="node_centertl" to="node_left" priority="2" type="" function="normal">
      <lanes>
         <lane id="-edge_left_0" depart="1" maxspeed="10.00" length="25.25" shape="-4.75,1.65 -30.00,1.65"/>
      </lanes>
   </edge>
   <edge id="-edge_right" from="node_centertl" to="node_right" priority="2" type="" function="normal">
      <lanes>
         <lane id="-edge_right_0" depart="1" maxspeed="10.00" length="25.25" shape="4.75,-1.65 30.00,-1.65"/>
      </lanes>
   </edge>
   <edge id="-edge_up" from="node_centertl" to="node_up" priority="2" type="" function="normal">
      <lanes>
         <lane id="-edge_up_0" depart="1" maxspeed="10.00" length="25.25" shape="1.65,4.75 1.65,30.00"/>
      </lanes>
   </edge>
   <edge id="edge_left" from="node_left" to="node_centertl" priority="2" type="" function="normal">
      <lanes>
         <lane id="edge_left_0" depart="1" maxspeed="10.00" length="25.25" shape="-30.00,-1.65 -4.75,-1.65"/>
      </lanes>
   </edge>
   <edge id="edge_right" from="node_right" to="node_centertl" priority="2" type="" function="normal">
      <lanes>
         <lane id="edge_right_0" depart="1" maxspeed="10.00" length="25.25" shape="30.00,1.65 4.75,1.65"/>
      </lanes>
   </edge>
   <edge id="edge_up" from="node_up" to="node_centertl" priority="2" type="" function="normal">
      <lanes>
         <lane id="edge_up_0" depart="1" maxspeed="10.00" length="25.25" shape="-1.65,30.00 -1.65,4.75"/>
      </lanes>
   </edge>

   <row-logic id="node_centertl" requestSize="9" laneNumber="3">
      <logic>
         <logicitem request="0" response="000010000" foes="100010000" cont="0"/>
         <logicitem request="1" response="011010000" foes="011110000" cont="1"/>
         <logicitem request="2" response="010001000" foes="010001000" cont="1"/>
         <logicitem request="3" response="000000000" foes="010000100" cont="0"/>
         <logicitem request="4" response="000000000" foes="110000011" cont="0"/>
         <logicitem request="5" response="001000010" foes="001000010" cont="1"/>
         <logicitem request="6" response="000000000" foes="000100010" cont="0"/>
         <logicitem request="7" response="000011000" foes="000011110" cont="1"/>
         <logicitem request="8" response="000010001" foes="000010001" cont="1"/>
      </logic>
   </row-logic>
   <row-logic id="node_left" requestSize="1" laneNumber="1">
      <logic>
         <logicitem request="0" response="0" foes="0" cont="0"/>
      </logic>
   </row-logic>
   <row-logic id="node_right" requestSize="1" laneNumber="1">
      <logic>
         <logicitem request="0" response="0" foes="0" cont="0"/>
      </logic>
   </row-logic>
   <row-logic id="node_up" requestSize="1" laneNumber="1">
      <logic>
         <logicitem request="0" response="0" foes="0" cont="0"/>
      </logic>
   </row-logic>

   <tl-logic id="node_centertl" type="static" programID="0" offset="0">
      <phase duration="31" state="rrrGGgGgg"/>
      <phase duration="3" state="rrryygygg"/>
      <phase duration="6" state="rrrrrGrGG"/>
      <phase duration="3" state="rrrrryryy"/>
      <phase duration="31" state="GGgGrrrrr"/>
      <phase duration="3" state="yyyyrrrrr"/>
   </tl-logic>

   <junction id="node_centertl" type="traffic_light" x="0.00" y="0.00" incLanes="edge_up_0 edge_right_0 edge_left_0" intLanes=":node_centertl_0_0 :node_centertl_9_0 :node_centertl_10_0 :node_centertl_3_0 :node_centertl_4_0 :node_centertl_11_0 :node_centertl_6_0 :node_centertl_12_0 :node_centertl_13_0" shape="-3.25,4.75 3.25,4.75 4.75,3.25 4.75,-3.25 -4.75,-3.25 -4.75,3.25"/>
   <junction id="node_left" type="priority" x="-30.00" y="0.00" incLanes="-edge_left_0" intLanes=":node_left_0_0" shape="-30.00,-0.05 -30.00,-3.25 -30.00,3.25 -30.00,0.05"/>
   <junction id="node_right" type="priority" x="30.00" y="0.00" incLanes="-edge_right_0" intLanes=":node_right_0_0" shape="30.00,0.05 30.00,3.25 30.00,-3.25 30.00,-0.05"/>
   <junction id="node_up" type="priority" x="0.00" y="30.00" incLanes="-edge_up_0" intLanes=":node_up_0_0" shape="-0.05,30.00 -3.25,30.00 3.25,30.00 0.05,30.00"/>

   <junction id=":node_centertl_9_0" type="internal" x="-1.07" y="1.65" incLanes=":node_centertl_1_0 edge_right_0" intLanes=":node_centertl_4_0" shape=""/>
   <junction id=":node_centertl_10_0" type="internal" x="-1.59" y="4.67" incLanes=":node_centertl_2_0 edge_right_0" intLanes=":node_centertl_3_0" shape=""/>
   <junction id=":node_centertl_11_0" type="internal" x="4.67" y="1.59" incLanes=":node_centertl_5_0 edge_left_0" intLanes=":node_centertl_6_0" shape=""/>
   <junction id=":node_centertl_12_0" type="internal" x="1.07" y="1.65" incLanes=":node_centertl_7_0 edge_right_0" intLanes=":node_centertl_3_0 :node_centertl_4_0" shape=""/>
   <junction id=":node_centertl_13_0" type="internal" x="-4.67" y="-1.59" incLanes=":node_centertl_8_0 edge_right_0" intLanes=":node_centertl_4_0" shape=""/>

   <succ edge="-edge_left" lane="-edge_left_0" junction="node_left">
      <succlane lane="edge_left_0" via=":node_left_0_0" yield="0" dir="t" state="M"/>
   </succ>
   <succ edge="-edge_right" lane="-edge_right_0" junction="node_right">
      <succlane lane="edge_right_0" via=":node_right_0_0" yield="0" dir="t" state="M"/>
   </succ>
   <succ edge="-edge_up" lane="-edge_up_0" junction="node_up">
      <succlane lane="edge_up_0" via=":node_up_0_0" yield="0" dir="t" state="M"/>
   </succ>
   <succ edge="edge_left" lane="edge_left_0" junction="node_centertl">
      <succlane lane="-edge_right_0" via=":node_centertl_6_0" tl="node_centertl" linkno="6" yield="1" dir="s" state="t"/>
      <succlane lane="-edge_up_0" via=":node_centertl_7_0" tl="node_centertl" linkno="7" yield="1" dir="l" state="t" int_end="x"/>
      <succlane lane="-edge_left_0" via=":node_centertl_8_0" tl="node_centertl" linkno="8" yield="1" dir="t" state="t" int_end="x"/>
   </succ>
   <succ edge="edge_right" lane="edge_right_0" junction="node_centertl">
      <succlane lane="-edge_up_0" via=":node_centertl_3_0" tl="node_centertl" linkno="3" yield="1" dir="r" state="t"/>
      <succlane lane="-edge_left_0" via=":node_centertl_4_0" tl="node_centertl" linkno="4" yield="1" dir="s" state="t"/>
      <succlane lane="-edge_right_0" via=":node_centertl_5_0" tl="node_centertl" linkno="5" yield="1" dir="t" state="t" int_end="x"/>
   </succ>
   <succ edge="edge_up" lane="edge_up_0" junction="node_centertl">
      <succlane lane="-edge_left_0" via=":node_centertl_0_0" tl="node_centertl" linkno="0" yield="1" dir="r" state="t"/>
      <succlane lane="-edge_right_0" via=":node_centertl_1_0" tl="node_centertl" linkno="1" yield="1" dir="l" state="t" int_end="x"/>
      <succlane lane="-edge_up_0" via=":node_centertl_2_0" tl="node_centertl" linkno="2" yield="1" dir="t" state="t" int_end="x"/>
   </succ>

   <succ edge=":node_centertl_0" lane=":node_centertl_0_0" junction="node_centertl">
      <succlane lane="-edge_left_0" tl="" linkno="" yield="0" dir="s" state="M"/>
   </succ>
   <succ edge=":node_centertl_1" lane=":node_centertl_1_0" junction="node_centertl">
      <succlane lane="-edge_right_0" via=":node_centertl_9_0" tl="" linkno="" yield="1" dir="s" state="M"/>
   </succ>
   <succ edge=":node_centertl_9" lane=":node_centertl_9_0" junction=":node_centertl_9">
      <succlane lane="-edge_right_0" tl="" linkno="0" yield="0" dir="s" state="M"/>
   </succ>
   <succ edge=":node_centertl_2" lane=":node_centertl_2_0" junction="node_centertl">
      <succlane lane="-edge_up_0" via=":node_centertl_10_0" tl="" linkno="" yield="1" dir="s" state="M"/>
   </succ>
   <succ edge=":node_centertl_10" lane=":node_centertl_10_0" junction=":node_centertl_10">
      <succlane lane="-edge_up_0" tl="" linkno="0" yield="0" dir="s" state="M"/>
   </succ>
   <succ edge=":node_centertl_3" lane=":node_centertl_3_0" junction="node_centertl">
      <succlane lane="-edge_up_0" tl="" linkno="" yield="0" dir="s" state="M"/>
   </succ>
   <succ edge=":node_centertl_4" lane=":node_centertl_4_0" junction="node_centertl">
      <succlane lane="-edge_left_0" tl="" linkno="" yield="0" dir="s" state="M"/>
   </succ>
   <succ edge=":node_centertl_5" lane=":node_centertl_5_0" junction="node_centertl">
      <succlane lane="-edge_right_0" via=":node_centertl_11_0" tl="" linkno="" yield="1" dir="s" state="M"/>
   </succ>
   <succ edge=":node_centertl_11" lane=":node_centertl_11_0" junction=":node_centertl_11">
      <succlane lane="-edge_right_0" tl="" linkno="0" yield="0" dir="s" state="M"/>
   </succ>
   <succ edge=":node_centertl_6" lane=":node_centertl_6_0" junction="node_centertl">
      <succlane lane="-edge_right_0" tl="" linkno="" yield="0" dir="s" state="M"/>
   </succ>
   <succ edge=":node_centertl_7" lane=":node_centertl_7_0" junction="node_centertl">
      <succlane lane="-edge_up_0" via=":node_centertl_12_0" tl="" linkno="" yield="1" dir="s" state="M"/>
   </succ>
   <succ edge=":node_centertl_12" lane=":node_centertl_12_0" junction=":node_centertl_12">
      <succlane lane="-edge_up_0" tl="" linkno="0" yield="0" dir="s" state="M"/>
   </succ>
   <succ edge=":node_centertl_8" lane=":node_centertl_8_0" junction="node_centertl">
      <succlane lane="-edge_left_0" via=":node_centertl_13_0" tl="" linkno="" yield="1" dir="s" state="M"/>
   </succ>
   <succ edge=":node_centertl_13" lane=":node_centertl_13_0" junction=":node_centertl_13">
      <succlane lane="-edge_left_0" tl="" linkno="0" yield="0" dir="s" state="M"/>
   </succ>
   <succ edge=":node_left_0" lane=":node_left_0_0" junction="node_left">
      <succlane lane="edge_left_0" tl="" linkno="" yield="0" dir="s" state="M"/>
   </succ>
   <succ edge=":node_right_0" lane=":node_right_0_0" junction="node_right">
      <succlane lane="edge_right_0" tl="" linkno="" yield="0" dir="s" state="M"/>
   </succ>
   <succ edge=":node_up_0" lane=":node_up_0_0" junction="node_up">
      <succlane lane="edge_up_0" tl="" linkno="" yield="0" dir="s" state="M"/>
   </succ>

</net>
