<?xml version="1.0" encoding="iso-8859-1"?>

<!-- generated on 06/01/11 09:28:37 by SUMO netconvert Version dev-SVN-r10489
<?xml version="1.0" encoding="iso-8859-1"?>

<configuration xmlns:xsi="http://www.w3.org/2001/XMLSchema-instance" xsi:noNamespaceSchemaLocation="http://sumo.sf.net/xsd/netconvertConfiguration.xsd">

    <input>
        <sumo-net-file value="input_net.net.xml"/>
    </input>

    <output>
        <output value="net.net.xml"/>
        <plain-output-prefix value="plain"/>
    </output>

    <processing>
        <offset.disable-normalization value="true"/>
    </processing>

</configuration>
-->

<edges>
   <edge id="-edge_left" from="node_centertl" to="node_left" priority="2" numLanes="1" speed="10.00"/>
   <edge id="-edge_right" from="node_centertl" to="node_right" priority="2" numLanes="1" speed="10.00"/>
   <edge id="-edge_up" from="node_centertl" to="node_up" priority="2" numLanes="1" speed="10.00"/>
   <edge id="edge_left" from="node_left" to="node_centertl" priority="2" numLanes="1" speed="10.00"/>
   <edge id="edge_right" from="node_right" to="node_centertl" priority="2" numLanes="1" speed="10.00"/>
   <edge id="edge_up" from="node_up" to="node_centertl" priority="2" numLanes="1" speed="10.00"/>
</edges>
