<?xml version="1.0" encoding="UTF-8"?>

<!-- generated on Wed Apr 20 15:44:31 2016 by SUMO netconvert Version dev-SVN-r20491
<?xml version="1.0" encoding="UTF-8"?>

<configuration xmlns:xsi="http://www.w3.org/2001/XMLSchema-instance" xsi:noNamespaceSchemaLocation="http://sumo.dlr.de/xsd/netconvertConfiguration.xsd">

    <input>
        <sumo-net-file value="input_net.net.xml"/>
    </input>

    <output>
        <output-file value="net.net.xml"/>
        <plain-output-prefix value="plain"/>
    </output>

    <processing>
        <no-turnarounds value="true"/>
        <offset.disable-normalization value="true"/>
        <lefthand value="false"/>
        <junctions.corner-detail value="0"/>
    </processing>

    <report>
        <xml-validation value="never"/>
    </report>

</configuration>
-->

<edges version="0.27" xmlns:xsi="http://www.w3.org/2001/XMLSchema-instance" xsi:noNamespaceSchemaLocation="http://sumo.dlr.de/xsd/edges_file.xsd">
    <edge id="-edge_left" from="node_centertl" to="node_left" priority="2" numLanes="1" speed="10.00"/>
    <edge id="-edge_right" from="node_centertl" to="node_right" priority="2" numLanes="1" speed="10.00"/>
    <edge id="-edge_up" from="node_centertl" to="node_up" priority="2" numLanes="1" speed="10.00"/>
    <edge id="edge_left" from="node_left" to="node_centertl" priority="2" numLanes="1" speed="10.00"/>
    <edge id="edge_right" from="node_right" to="node_centertl" priority="2" numLanes="1" speed="10.00"/>
    <edge id="edge_up" from="node_up" to="node_centertl" priority="2" numLanes="1" speed="10.00"/>
</edges>
