<?xml version="1.0" encoding="UTF-8"?>
<!-- generated on 2021-02-26 14:24:40.874625 by $Id$ v1_8_0+1397-23ddab0
  options: -n net.net.xml -a input_additional.add.xml -r input_routes.rou.xml -o out.add.xml -v <doubleminus>debug-stop stop_b <doubleminus>skip-parking
-->
<additional xmlns:xsi="http://www.w3.org/2001/XMLSchema-instance" xsi:noNamespaceSchemaLocation="http://sumo.dlr.de/xsd/additional_file.xsd">
</additional>
