<?xml version="1.0"?>

<!-- generated on 06/15/11 10:25:52 by SUMO sumo Version dev-SVN-r10615
<?xml version="1.0" encoding="iso-8859-1"?>

<configuration xmlns:xsi="http://www.w3.org/2001/XMLSchema-instance" xsi:noNamespaceSchemaLocation="http://sumo.sf.net/xsd/sumoConfiguration.xsd">

    <input>
        <net-file value="net.net.xml"/>
        <route-files value="input_routes.rou.xml"/>
        <additional-files value="input_additional.add.xml"/>
    </input>

    <time>
        <begin value="0"/>
        <end value="10000"/>
    </time>

    <report>
        <no-duration-log value="true"/>
        <no-step-log value="true"/>
    </report>

</configuration>
-->

<netstats>
    <interval begin="0.00" end="60.00" id="dump_60">
        <edge id="1/1to2/1" sampledSeconds="900.00" traveltime="63.13" density="15.31" occupancy="10.71" waitingTime="0.00" speed="15.52" departed="30" arrived="0" entered="0" left="0" laneChangedFrom="0" laneChangedTo="0"/>
    </interval>
    <interval begin="60.00" end="120.00" id="dump_60">
        <edge id="1/1to2/1" sampledSeconds="2333.63" traveltime="81.02" density="39.69" occupancy="27.78" waitingTime="33.00" speed="12.10" departed="30" arrived="0" entered="0" left="23" laneChangedFrom="0" laneChangedTo="0"/>
        <edge id="2/1to3/1" sampledSeconds="362.40" traveltime="53.66" density="6.16" occupancy="4.31" waitingTime="0.00" speed="18.26" departed="0" arrived="0" entered="23" left="0" laneChangedFrom="0" laneChangedTo="0"/>
    </interval>
    <interval begin="120.00" end="180.00" id="dump_60">
        <edge id="1/1to2/1" sampledSeconds="1839.84" traveltime="56.97" density="31.29" occupancy="21.90" waitingTime="0.00" speed="17.20" departed="30" arrived="0" entered="0" left="40" laneChangedFrom="0" laneChangedTo="0"/>
        <edge id="2/1to3/1" sampledSeconds="2649.53" traveltime="83.30" density="45.06" occupancy="31.54" waitingTime="10.00" speed="11.76" departed="0" arrived="0" entered="40" left="2" laneChangedFrom="0" laneChangedTo="0"/>
        <edge id="3/1to4/1" sampledSeconds="3.51" traveltime="85.57" density="0.06" occupancy="0.04" waitingTime="0.00" speed="11.45" departed="0" arrived="0" entered="2" left="0" laneChangedFrom="0" laneChangedTo="0"/>
    </interval>
    <interval begin="180.00" end="240.00" id="dump_60">
        <edge id="1/1to2/1" sampledSeconds="1591.42" traveltime="53.31" density="27.07" occupancy="18.95" waitingTime="0.00" speed="18.38" departed="30" arrived="0" entered="0" left="31" laneChangedFrom="0" laneChangedTo="0"/>
        <edge id="2/1to3/1" sampledSeconds="3283.70" traveltime="104.52" density="55.85" occupancy="39.09" waitingTime="60.00" speed="9.38" departed="0" arrived="0" entered="30" left="43" laneChangedFrom="0" laneChangedTo="0"/>
        <edge id="3/1to4/1" sampledSeconds="1413.02" traveltime="63.56" density="24.03" occupancy="16.82" waitingTime="0.00" speed="15.42" departed="0" arrived="0" entered="43" left="0" laneChangedFrom="0" laneChangedTo="0"/>
    </interval>
    <interval begin="240.00" end="300.00" id="dump_60">
        <edge id="1/1to2/1" sampledSeconds="1594.52" traveltime="53.58" density="27.12" occupancy="18.98" waitingTime="0.00" speed="18.29" departed="30" arrived="0" entered="0" left="29" laneChangedFrom="0" laneChangedTo="0"/>
        <edge id="2/1to3/1" sampledSeconds="2521.56" traveltime="68.38" density="42.89" occupancy="30.02" waitingTime="21.00" speed="14.33" departed="0" arrived="0" entered="30" left="42" laneChangedFrom="0" laneChangedTo="0"/>
        <edge id="3/1to4/1" sampledSeconds="3543.92" traveltime="105.77" density="60.27" occupancy="42.19" waitingTime="0.00" speed="9.26" departed="0" arrived="0" entered="42" left="25" laneChangedFrom="0" laneChangedTo="0"/>
        <edge id="4/1to5/1" sampledSeconds="423.06" traveltime="54.68" density="7.20" occupancy="5.04" waitingTime="0.00" speed="17.92" departed="0" arrived="0" entered="25" left="0" laneChangedFrom="0" laneChangedTo="0"/>
    </interval>
    <interval begin="300.00" end="360.00" id="dump_60">
        <edge id="1/1to2/1" sampledSeconds="1589.19" traveltime="53.32" density="27.03" occupancy="18.92" waitingTime="0.00" speed="18.38" departed="30" arrived="0" entered="0" left="31" laneChangedFrom="0" laneChangedTo="0"/>
        <edge id="2/1to3/1" sampledSeconds="1980.74" traveltime="58.99" density="33.69" occupancy="23.58" waitingTime="0.00" speed="16.61" departed="0" arrived="0" entered="30" left="36" laneChangedFrom="0" laneChangedTo="0"/>
        <edge id="3/1to4/1" sampledSeconds="3528.30" traveltime="101.67" density="60.01" occupancy="42.01" waitingTime="0.00" speed="9.64" departed="0" arrived="0" entered="36" left="42" laneChangedFrom="0" laneChangedTo="0"/>
        <edge id="4/1to5/1" sampledSeconds="2773.75" traveltime="86.46" density="47.18" occupancy="33.02" waitingTime="9.00" speed="11.33" departed="0" arrived="0" entered="42" left="3" laneChangedFrom="0" laneChangedTo="0"/>
        <edge id="5/1to6/1" sampledSeconds="5.66" traveltime="78.92" density="0.10" occupancy="0.07" waitingTime="0.00" speed="12.42" departed="0" arrived="0" entered="3" left="0" laneChangedFrom="0" laneChangedTo="0"/>
    </interval>
    <interval begin="360.00" end="420.00" id="dump_60">
        <edge id="1/1to2/1" sampledSeconds="1587.61" traveltime="53.31" density="27.00" occupancy="18.90" waitingTime="0.00" speed="18.38" departed="30" arrived="0" entered="0" left="30" laneChangedFrom="0" laneChangedTo="0"/>
        <edge id="2/1to3/1" sampledSeconds="1972.01" traveltime="67.47" density="33.54" occupancy="23.48" waitingTime="0.00" speed="14.52" departed="0" arrived="0" entered="30" left="27" laneChangedFrom="0" laneChangedTo="0"/>
        <edge id="3/1to4/1" sampledSeconds="2879.56" traveltime="73.16" density="48.98" occupancy="34.28" waitingTime="0.00" speed="13.39" departed="0" arrived="0" entered="27" left="39" laneChangedFrom="0" laneChangedTo="0"/>
        <edge id="4/1to5/1" sampledSeconds="3775.26" traveltime="114.62" density="64.21" occupancy="44.95" waitingTime="60.00" speed="8.55" departed="0" arrived="0" entered="39" left="43" laneChangedFrom="0" laneChangedTo="0"/>
        <edge id="5/1to6/1" sampledSeconds="1453.67" traveltime="64.12" density="24.72" occupancy="17.31" waitingTime="0.00" speed="15.28" departed="0" arrived="0" entered="43" left="0" laneChangedFrom="0" laneChangedTo="0"/>
    </interval>
    <interval begin="420.00" end="480.00" id="dump_60">
        <edge id="1/1to2/1" sampledSeconds="1587.61" traveltime="53.31" density="27.00" occupancy="18.90" waitingTime="0.00" speed="18.38" departed="30" arrived="0" entered="0" left="30" laneChangedFrom="0" laneChangedTo="0"/>
        <edge id="2/1to3/1" sampledSeconds="1648.47" traveltime="52.66" density="28.04" occupancy="19.63" waitingTime="0.00" speed="18.61" departed="0" arrived="0" entered="30" left="38" laneChangedFrom="0" laneChangedTo="0"/>
        <edge id="3/1to4/1" sampledSeconds="2905.47" traveltime="76.63" density="49.42" occupancy="34.59" waitingTime="0.00" speed="12.79" departed="0" arrived="0" entered="38" left="30" laneChangedFrom="0" laneChangedTo="0"/>
        <edge id="4/1to5/1" sampledSeconds="3322.49" traveltime="91.84" density="56.51" occupancy="39.56" waitingTime="60.00" speed="10.67" departed="0" arrived="0" entered="30" left="41" laneChangedFrom="0" laneChangedTo="0"/>
        <edge id="5/1to6/1" sampledSeconds="3525.37" traveltime="104.55" density="59.96" occupancy="41.97" waitingTime="0.00" speed="9.37" departed="0" arrived="0" entered="41" left="27" laneChangedFrom="0" laneChangedTo="0"/>
        <edge id="6/1to7/1" sampledSeconds="476.68" traveltime="55.37" density="8.11" occupancy="5.68" waitingTime="0.00" speed="17.70" departed="0" arrived="0" entered="26" left="0" laneChangedFrom="0" laneChangedTo="0"/>
    </interval>
    <interval begin="480.00" end="540.00" id="dump_60">
        <edge id="1/1to2/1" sampledSeconds="1587.61" traveltime="53.31" density="27.00" occupancy="18.90" waitingTime="0.00" speed="18.38" departed="30" arrived="0" entered="0" left="30" laneChangedFrom="0" laneChangedTo="0"/>
        <edge id="2/1to3/1" sampledSeconds="1499.91" traveltime="50.00" density="25.51" occupancy="17.86" waitingTime="0.00" speed="19.60" departed="0" arrived="0" entered="30" left="30" laneChangedFrom="0" laneChangedTo="0"/>
        <edge id="3/1to4/1" sampledSeconds="3183.93" traveltime="107.81" density="54.15" occupancy="37.91" waitingTime="50.00" speed="9.09" departed="0" arrived="0" entered="30" left="34" laneChangedFrom="0" laneChangedTo="0"/>
        <edge id="4/1to5/1" sampledSeconds="2656.72" traveltime="66.13" density="45.19" occupancy="31.63" waitingTime="10.00" speed="14.82" departed="0" arrived="0" entered="34" left="36" laneChangedFrom="0" laneChangedTo="0"/>
        <edge id="5/1to6/1" sampledSeconds="3465.39" traveltime="98.54" density="58.94" occupancy="41.26" waitingTime="0.00" speed="9.94" departed="0" arrived="0" entered="36" left="42" laneChangedFrom="0" laneChangedTo="0"/>
        <edge id="6/1to7/1" sampledSeconds="2828.81" traveltime="86.87" density="48.11" occupancy="33.68" waitingTime="0.00" speed="11.28" departed="0" arrived="0" entered="43" left="8" laneChangedFrom="0" laneChangedTo="0"/>
        <edge id="7/1to8/1" sampledSeconds="39.40" traveltime="52.77" density="0.67" occupancy="0.47" waitingTime="0.00" speed="18.57" departed="0" arrived="0" entered="7" left="0" laneChangedFrom="0" laneChangedTo="0"/>
    </interval>
    <interval begin="540.00" end="600.00" id="dump_60">
        <edge id="1/1to2/1" sampledSeconds="1587.61" traveltime="53.31" density="27.00" occupancy="18.90" waitingTime="0.00" speed="18.38" departed="30" arrived="0" entered="0" left="30" laneChangedFrom="0" laneChangedTo="0"/>
        <edge id="2/1to3/1" sampledSeconds="1500.30" traveltime="50.03" density="25.52" occupancy="17.86" waitingTime="0.00" speed="19.59" departed="0" arrived="0" entered="30" left="30" laneChangedFrom="0" laneChangedTo="0"/>
        <edge id="3/1to4/1" sampledSeconds="2484.95" traveltime="71.43" density="42.26" occupancy="29.58" waitingTime="24.00" speed="13.72" departed="0" arrived="0" entered="30" left="43" laneChangedFrom="0" laneChangedTo="0"/>
        <edge id="4/1to5/1" sampledSeconds="3332.53" traveltime="92.36" density="56.68" occupancy="39.68" waitingTime="0.00" speed="10.61" departed="0" arrived="0" entered="43" left="29" laneChangedFrom="0" laneChangedTo="0"/>
        <edge id="5/1to6/1" sampledSeconds="2838.90" traveltime="71.58" density="48.28" occupancy="33.80" waitingTime="0.00" speed="13.69" departed="0" arrived="0" entered="29" left="39" laneChangedFrom="0" laneChangedTo="0"/>
        <edge id="6/1to7/1" sampledSeconds="3549.56" traveltime="102.80" density="60.37" occupancy="42.26" waitingTime="0.00" speed="9.53" departed="0" arrived="0" entered="39" left="43" laneChangedFrom="0" laneChangedTo="0"/>
        <edge id="7/1to8/1" sampledSeconds="1761.67" traveltime="68.10" density="29.96" occupancy="20.97" waitingTime="0.00" speed="14.39" departed="0" arrived="0" entered="44" left="0" laneChangedFrom="0" laneChangedTo="0"/>
    </interval>
    <interval begin="600.00" end="660.00" id="dump_60">
        <edge id="1/1to2/1" sampledSeconds="1587.61" traveltime="53.31" density="27.00" occupancy="18.90" waitingTime="0.00" speed="18.38" departed="30" arrived="0" entered="0" left="30" laneChangedFrom="0" laneChangedTo="0"/>
        <edge id="2/1to3/1" sampledSeconds="1501.09" traveltime="50.02" density="25.53" occupancy="17.87" waitingTime="0.00" speed="19.59" departed="0" arrived="0" entered="30" left="30" laneChangedFrom="0" laneChangedTo="0"/>
        <edge id="3/1to4/1" sampledSeconds="1802.99" traveltime="53.45" density="30.66" occupancy="21.47" waitingTime="0.00" speed="18.33" departed="0" arrived="0" entered="30" left="39" laneChangedFrom="0" laneChangedTo="0"/>
        <edge id="4/1to5/1" sampledSeconds="3567.88" traveltime="103.61" density="60.68" occupancy="42.48" waitingTime="0.00" speed="9.46" departed="0" arrived="0" entered="39" left="43" laneChangedFrom="0" laneChangedTo="0"/>
        <edge id="5/1to6/1" sampledSeconds="2995.22" traveltime="77.66" density="50.94" occupancy="35.66" waitingTime="0.00" speed="12.62" departed="0" arrived="0" entered="43" left="29" laneChangedFrom="0" laneChangedTo="0"/>
        <edge id="6/1to7/1" sampledSeconds="3108.15" traveltime="82.29" density="52.86" occupancy="37.00" waitingTime="0.00" speed="11.91" departed="0" arrived="0" entered="28" left="40" laneChangedFrom="0" laneChangedTo="0"/>
        <edge id="7/1to8/1" sampledSeconds="3835.87" traveltime="119.95" density="65.24" occupancy="45.67" waitingTime="0.00" speed="8.17" departed="0" arrived="0" entered="40" left="25" laneChangedFrom="0" laneChangedTo="0"/>
        <edge id="8/1to9/1" sampledSeconds="450.80" traveltime="56.13" density="7.67" occupancy="5.37" waitingTime="0.00" speed="17.46" departed="0" arrived="0" entered="25" left="0" laneChangedFrom="0" laneChangedTo="0"/>
    </interval>
    <interval begin="660.00" end="720.00" id="dump_60">
        <edge id="1/1to2/1" sampledSeconds="1587.61" traveltime="53.31" density="27.00" occupancy="18.90" waitingTime="0.00" speed="18.38" departed="30" arrived="0" entered="0" left="30" laneChangedFrom="0" laneChangedTo="0"/>
        <edge id="2/1to3/1" sampledSeconds="1499.91" traveltime="50.00" density="25.51" occupancy="17.86" waitingTime="0.00" speed="19.60" departed="0" arrived="0" entered="30" left="30" laneChangedFrom="0" laneChangedTo="0"/>
        <edge id="3/1to4/1" sampledSeconds="1615.34" traveltime="54.20" density="27.47" occupancy="19.23" waitingTime="0.00" speed="18.08" departed="0" arrived="0" entered="30" left="27" laneChangedFrom="0" laneChangedTo="0"/>
        <edge id="4/1to5/1" sampledSeconds="3044.99" traveltime="80.34" density="51.79" occupancy="36.25" waitingTime="0.00" speed="12.20" departed="0" arrived="0" entered="27" left="40" laneChangedFrom="0" laneChangedTo="0"/>
        <edge id="5/1to6/1" sampledSeconds="3658.21" traveltime="108.16" density="62.22" occupancy="43.55" waitingTime="0.00" speed="9.06" departed="0" arrived="0" entered="40" left="39" laneChangedFrom="0" laneChangedTo="0"/>
        <edge id="6/1to7/1" sampledSeconds="2672.35" traveltime="66.46" density="45.45" occupancy="31.82" waitingTime="0.00" speed="14.74" departed="0" arrived="0" entered="40" left="35" laneChangedFrom="0" laneChangedTo="0"/>
        <edge id="7/1to8/1" sampledSeconds="3769.88" traveltime="114.26" density="64.12" occupancy="44.88" waitingTime="0.00" speed="8.58" departed="0" arrived="0" entered="35" left="43" laneChangedFrom="0" laneChangedTo="0"/>
        <edge id="8/1to9/1" sampledSeconds="2785.97" traveltime="87.12" density="47.38" occupancy="33.17" waitingTime="5.00" speed="11.25" departed="0" arrived="0" entered="43" left="1" laneChangedFrom="0" laneChangedTo="0"/>
        <edge id="9/1to10/1" sampledSeconds="13.23" traveltime="54.32" density="0.22" occupancy="0.16" waitingTime="0.00" speed="18.04" departed="0" arrived="0" entered="1" left="0" laneChangedFrom="0" laneChangedTo="0"/>
    </interval>
    <interval begin="720.00" end="780.00" id="dump_60">
        <edge id="1/1to2/1" sampledSeconds="1587.61" traveltime="53.31" density="27.00" occupancy="18.90" waitingTime="0.00" speed="18.38" departed="30" arrived="0" entered="0" left="30" laneChangedFrom="0" laneChangedTo="0"/>
        <edge id="2/1to3/1" sampledSeconds="1499.91" traveltime="50.00" density="25.51" occupancy="17.86" waitingTime="0.00" speed="19.60" departed="0" arrived="0" entered="30" left="30" laneChangedFrom="0" laneChangedTo="0"/>
        <edge id="3/1to4/1" sampledSeconds="1589.73" traveltime="52.52" density="27.04" occupancy="18.93" waitingTime="0.00" speed="18.66" departed="0" arrived="0" entered="30" left="34" laneChangedFrom="0" laneChangedTo="0"/>
        <edge id="4/1to5/1" sampledSeconds="2613.10" traveltime="67.92" density="44.44" occupancy="31.11" waitingTime="1.00" speed="14.43" departed="0" arrived="0" entered="34" left="34" laneChangedFrom="0" laneChangedTo="0"/>
        <edge id="5/1to6/1" sampledSeconds="3348.98" traveltime="92.94" density="56.96" occupancy="39.87" waitingTime="0.00" speed="10.54" departed="0" arrived="0" entered="34" left="42" laneChangedFrom="0" laneChangedTo="0"/>
        <edge id="6/1to7/1" sampledSeconds="3561.65" traveltime="103.30" density="60.58" occupancy="42.40" waitingTime="0.00" speed="9.49" departed="0" arrived="0" entered="42" left="25" laneChangedFrom="0" laneChangedTo="0"/>
        <edge id="7/1to8/1" sampledSeconds="2976.73" traveltime="76.97" density="50.63" occupancy="35.44" waitingTime="0.00" speed="12.73" departed="0" arrived="0" entered="25" left="39" laneChangedFrom="0" laneChangedTo="0"/>
        <edge id="8/1to9/1" sampledSeconds="3929.71" traveltime="123.55" density="66.84" occupancy="46.79" waitingTime="60.00" speed="7.93" departed="0" arrived="0" entered="39" left="43" laneChangedFrom="0" laneChangedTo="0"/>
        <edge id="9/1to10/1" sampledSeconds="1329.69" traveltime="63.47" density="22.62" occupancy="15.83" waitingTime="0.00" speed="15.44" departed="0" arrived="0" entered="43" left="0" laneChangedFrom="0" laneChangedTo="0"/>
    </interval>
    <interval begin="780.00" end="840.00" id="dump_60">
        <edge id="1/1to2/1" sampledSeconds="1587.61" traveltime="53.31" density="27.00" occupancy="18.90" waitingTime="0.00" speed="18.38" departed="30" arrived="0" entered="0" left="30" laneChangedFrom="0" laneChangedTo="0"/>
        <edge id="10/1to1/1" sampledSeconds="332.68" traveltime="55.24" density="5.66" occupancy="3.96" waitingTime="0.00" speed="17.74" departed="0" arrived="0" entered="22" left="0" laneChangedFrom="0" laneChangedTo="0"/>
        <edge id="2/1to3/1" sampledSeconds="1499.91" traveltime="50.00" density="25.51" occupancy="17.86" waitingTime="0.00" speed="19.60" departed="0" arrived="0" entered="30" left="30" laneChangedFrom="0" laneChangedTo="0"/>
        <edge id="3/1to4/1" sampledSeconds="1499.91" traveltime="50.00" density="25.51" occupancy="17.86" waitingTime="0.00" speed="19.60" departed="0" arrived="0" entered="30" left="30" laneChangedFrom="0" laneChangedTo="0"/>
        <edge id="4/1to5/1" sampledSeconds="2804.94" traveltime="95.39" density="47.71" occupancy="33.39" waitingTime="44.00" speed="10.27" departed="0" arrived="0" entered="30" left="32" laneChangedFrom="0" laneChangedTo="0"/>
        <edge id="5/1to6/1" sampledSeconds="2622.87" traveltime="64.55" density="44.61" occupancy="31.23" waitingTime="0.00" speed="15.18" departed="0" arrived="0" entered="32" left="38" laneChangedFrom="0" laneChangedTo="0"/>
        <edge id="6/1to7/1" sampledSeconds="3900.52" traveltime="121.48" density="66.34" occupancy="46.44" waitingTime="0.00" speed="8.07" departed="0" arrived="0" entered="38" left="43" laneChangedFrom="0" laneChangedTo="0"/>
        <edge id="7/1to8/1" sampledSeconds="2994.75" traveltime="77.69" density="50.93" occupancy="35.65" waitingTime="0.00" speed="12.61" departed="0" arrived="0" entered="43" left="28" laneChangedFrom="0" laneChangedTo="0"/>
        <edge id="8/1to9/1" sampledSeconds="3442.45" traveltime="97.48" density="58.55" occupancy="40.98" waitingTime="60.00" speed="10.05" departed="0" arrived="0" entered="28" left="42" laneChangedFrom="0" laneChangedTo="0"/>
        <edge id="9/1to10/1" sampledSeconds="3551.33" traveltime="107.82" density="60.40" occupancy="42.28" waitingTime="0.00" speed="9.09" departed="0" arrived="0" entered="41" left="22" laneChangedFrom="0" laneChangedTo="0"/>
    </interval>
    <interval begin="840.00" end="900.00" id="dump_60">
        <edge id="1/1to2/1" sampledSeconds="1581.85" traveltime="53.20" density="26.90" occupancy="18.83" waitingTime="0.00" speed="18.42" departed="29" arrived="0" entered="1" left="30" laneChangedFrom="0" laneChangedTo="0"/>
        <edge id="10/1to1/1" sampledSeconds="2564.15" traveltime="80.46" density="43.61" occupancy="30.53" waitingTime="1.00" speed="12.18" departed="0" arrived="0" entered="42" left="1" laneChangedFrom="0" laneChangedTo="0"/>
        <edge id="2/1to3/1" sampledSeconds="1499.91" traveltime="50.00" density="25.51" occupancy="17.86" waitingTime="0.00" speed="19.60" departed="0" arrived="0" entered="30" left="30" laneChangedFrom="0" laneChangedTo="0"/>
        <edge id="3/1to4/1" sampledSeconds="1499.91" traveltime="50.00" density="25.51" occupancy="17.86" waitingTime="0.00" speed="19.60" departed="0" arrived="0" entered="30" left="30" laneChangedFrom="0" laneChangedTo="0"/>
        <edge id="4/1to5/1" sampledSeconds="2134.48" traveltime="61.52" density="36.30" occupancy="25.41" waitingTime="0.00" speed="15.93" departed="0" arrived="0" entered="30" left="43" laneChangedFrom="0" laneChangedTo="0"/>
        <edge id="5/1to6/1" sampledSeconds="3157.77" traveltime="84.43" density="53.71" occupancy="37.59" waitingTime="0.00" speed="11.61" departed="0" arrived="0" entered="43" left="25" laneChangedFrom="0" laneChangedTo="0"/>
        <edge id="6/1to7/1" sampledSeconds="3306.18" traveltime="91.03" density="56.23" occupancy="39.36" waitingTime="0.00" speed="10.77" departed="0" arrived="0" entered="24" left="41" laneChangedFrom="0" laneChangedTo="0"/>
        <edge id="7/1to8/1" sampledSeconds="3936.73" traveltime="123.71" density="66.96" occupancy="46.87" waitingTime="0.00" speed="7.92" departed="0" arrived="0" entered="40" left="33" laneChangedFrom="0" laneChangedTo="0"/>
        <edge id="8/1to9/1" sampledSeconds="2671.33" traveltime="66.68" density="45.43" occupancy="31.80" waitingTime="12.00" speed="14.70" departed="0" arrived="0" entered="33" left="35" laneChangedFrom="0" laneChangedTo="0"/>
        <edge id="9/1to10/1" sampledSeconds="3660.83" traveltime="108.35" density="62.26" occupancy="43.58" waitingTime="0.00" speed="9.04" departed="0" arrived="0" entered="36" left="42" laneChangedFrom="0" laneChangedTo="0"/>
    </interval>
    <interval begin="900.00" end="960.00" id="dump_60">
        <edge id="1/1to2/1" sampledSeconds="1778.80" traveltime="50.43" density="30.25" occupancy="21.18" waitingTime="0.00" speed="19.43" departed="1" arrived="0" entered="39" left="29" laneChangedFrom="0" laneChangedTo="0"/>
        <edge id="10/1to1/1" sampledSeconds="3992.66" traveltime="127.32" density="67.91" occupancy="47.53" waitingTime="0.00" speed="7.70" departed="0" arrived="0" entered="40" left="39" laneChangedFrom="0" laneChangedTo="0"/>
        <edge id="2/1to3/1" sampledSeconds="1490.96" traveltime="50.00" density="25.36" occupancy="17.75" waitingTime="0.00" speed="19.60" departed="0" arrived="0" entered="30" left="30" laneChangedFrom="0" laneChangedTo="0"/>
        <edge id="3/1to4/1" sampledSeconds="1499.91" traveltime="50.00" density="25.51" occupancy="17.86" waitingTime="0.00" speed="19.60" departed="0" arrived="0" entered="30" left="30" laneChangedFrom="0" laneChangedTo="0"/>
        <edge id="4/1to5/1" sampledSeconds="1548.67" traveltime="50.42" density="26.34" occupancy="18.44" waitingTime="0.00" speed="19.43" departed="0" arrived="0" entered="30" left="34" laneChangedFrom="0" laneChangedTo="0"/>
        <edge id="5/1to6/1" sampledSeconds="3888.60" traveltime="127.46" density="66.14" occupancy="46.30" waitingTime="0.00" speed="7.69" departed="0" arrived="0" entered="34" left="38" laneChangedFrom="0" laneChangedTo="0"/>
        <edge id="6/1to7/1" sampledSeconds="2715.84" traveltime="68.15" density="46.19" occupancy="32.33" waitingTime="0.00" speed="14.38" departed="0" arrived="0" entered="39" left="33" laneChangedFrom="0" laneChangedTo="0"/>
        <edge id="7/1to8/1" sampledSeconds="3726.93" traveltime="111.85" density="63.39" occupancy="44.37" waitingTime="0.00" speed="8.76" departed="0" arrived="0" entered="33" left="43" laneChangedFrom="0" laneChangedTo="0"/>
        <edge id="8/1to9/1" sampledSeconds="3335.41" traveltime="92.42" density="56.73" occupancy="39.71" waitingTime="0.00" speed="10.60" departed="0" arrived="0" entered="43" left="26" laneChangedFrom="0" laneChangedTo="0"/>
        <edge id="9/1to10/1" sampledSeconds="2941.79" traveltime="75.61" density="50.03" occupancy="35.02" waitingTime="0.00" speed="12.96" departed="0" arrived="0" entered="26" left="40" laneChangedFrom="0" laneChangedTo="0"/>
    </interval>
    <interval begin="960.00" end="1020.00" id="dump_60">
        <edge id="1/1to2/1" sampledSeconds="2210.44" traveltime="50.00" density="37.59" occupancy="26.32" waitingTime="0.00" speed="19.60" departed="0" arrived="0" entered="44" left="44" laneChangedFrom="0" laneChangedTo="0"/>
        <edge id="10/1to1/1" sampledSeconds="3502.59" traveltime="100.77" density="59.57" occupancy="41.70" waitingTime="0.00" speed="9.72" departed="0" arrived="0" entered="30" left="44" laneChangedFrom="0" laneChangedTo="0"/>
        <edge id="2/1to3/1" sampledSeconds="1888.66" traveltime="50.00" density="32.12" occupancy="22.49" waitingTime="0.00" speed="19.60" departed="0" arrived="0" entered="44" left="32" laneChangedFrom="0" laneChangedTo="0"/>
        <edge id="3/1to4/1" sampledSeconds="1495.59" traveltime="50.00" density="25.44" occupancy="17.81" waitingTime="0.00" speed="19.60" departed="0" arrived="0" entered="32" left="30" laneChangedFrom="0" laneChangedTo="0"/>
        <edge id="4/1to5/1" sampledSeconds="1522.54" traveltime="50.86" density="25.90" occupancy="18.13" waitingTime="0.00" speed="19.27" departed="0" arrived="0" entered="30" left="29" laneChangedFrom="0" laneChangedTo="0"/>
        <edge id="5/1to6/1" sampledSeconds="3153.98" traveltime="92.14" density="53.64" occupancy="37.55" waitingTime="0.00" speed="10.63" departed="0" arrived="0" entered="29" left="42" laneChangedFrom="0" laneChangedTo="0"/>
        <edge id="6/1to7/1" sampledSeconds="3676.20" traveltime="109.18" density="62.52" occupancy="43.77" waitingTime="0.00" speed="8.98" departed="0" arrived="0" entered="42" left="25" laneChangedFrom="0" laneChangedTo="0"/>
        <edge id="7/1to8/1" sampledSeconds="2825.49" traveltime="71.82" density="48.06" occupancy="33.64" waitingTime="0.00" speed="13.64" departed="0" arrived="0" entered="26" left="40" laneChangedFrom="0" laneChangedTo="0"/>
        <edge id="8/1to9/1" sampledSeconds="3758.73" traveltime="113.60" density="63.93" occupancy="44.75" waitingTime="0.00" speed="8.63" departed="0" arrived="0" entered="39" left="43" laneChangedFrom="0" laneChangedTo="0"/>
        <edge id="9/1to10/1" sampledSeconds="2888.43" traveltime="73.46" density="49.13" occupancy="34.39" waitingTime="21.00" speed="13.34" departed="0" arrived="0" entered="43" left="30" laneChangedFrom="0" laneChangedTo="0"/>
    </interval>
    <interval begin="1020.00" end="1080.00" id="dump_60">
        <edge id="1/1to2/1" sampledSeconds="2210.44" traveltime="50.00" density="37.59" occupancy="26.32" waitingTime="0.00" speed="19.60" departed="0" arrived="0" entered="44" left="44" laneChangedFrom="0" laneChangedTo="0"/>
        <edge id="10/1to1/1" sampledSeconds="2416.04" traveltime="56.62" density="41.09" occupancy="28.76" waitingTime="0.00" speed="17.31" departed="0" arrived="0" entered="31" left="44" laneChangedFrom="0" laneChangedTo="0"/>
        <edge id="2/1to3/1" sampledSeconds="2210.44" traveltime="50.00" density="37.59" occupancy="26.32" waitingTime="0.00" speed="19.60" departed="0" arrived="0" entered="44" left="44" laneChangedFrom="0" laneChangedTo="0"/>
        <edge id="3/1to4/1" sampledSeconds="2000.71" traveltime="50.00" density="34.03" occupancy="23.82" waitingTime="0.00" speed="19.60" departed="0" arrived="0" entered="44" left="34" laneChangedFrom="0" laneChangedTo="0"/>
        <edge id="4/1to5/1" sampledSeconds="1581.68" traveltime="51.80" density="26.90" occupancy="18.83" waitingTime="0.00" speed="18.92" departed="0" arrived="0" entered="34" left="31" laneChangedFrom="0" laneChangedTo="0"/>
        <edge id="5/1to6/1" sampledSeconds="2504.63" traveltime="63.36" density="42.60" occupancy="29.82" waitingTime="0.00" speed="15.47" departed="0" arrived="0" entered="31" left="37" laneChangedFrom="0" laneChangedTo="0"/>
        <edge id="6/1to7/1" sampledSeconds="3948.00" traveltime="124.22" density="67.15" occupancy="47.00" waitingTime="0.00" speed="7.89" departed="0" arrived="0" entered="37" left="43" laneChangedFrom="0" laneChangedTo="0"/>
        <edge id="7/1to8/1" sampledSeconds="2921.59" traveltime="75.46" density="49.69" occupancy="34.78" waitingTime="0.00" speed="12.99" departed="0" arrived="0" entered="43" left="27" laneChangedFrom="0" laneChangedTo="0"/>
        <edge id="8/1to9/1" sampledSeconds="3254.87" traveltime="88.66" density="55.36" occupancy="38.75" waitingTime="0.00" speed="11.05" departed="0" arrived="0" entered="28" left="42" laneChangedFrom="0" laneChangedTo="0"/>
        <edge id="9/1to10/1" sampledSeconds="3871.99" traveltime="119.89" density="65.85" occupancy="46.10" waitingTime="60.00" speed="8.17" departed="0" arrived="0" entered="42" left="31" laneChangedFrom="0" laneChangedTo="0"/>
    </interval>
    <interval begin="1080.00" end="1140.00" id="dump_60">
        <edge id="1/1to2/1" sampledSeconds="2210.41" traveltime="50.00" density="37.59" occupancy="26.32" waitingTime="0.00" speed="19.60" departed="0" arrived="0" entered="44" left="45" laneChangedFrom="0" laneChangedTo="0"/>
        <edge id="10/1to1/1" sampledSeconds="2210.44" traveltime="50.00" density="37.59" occupancy="26.32" waitingTime="0.00" speed="19.60" departed="0" arrived="0" entered="44" left="44" laneChangedFrom="0" laneChangedTo="0"/>
        <edge id="2/1to3/1" sampledSeconds="2210.35" traveltime="50.00" density="37.59" occupancy="26.32" waitingTime="0.00" speed="19.60" departed="0" arrived="0" entered="44" left="45" laneChangedFrom="0" laneChangedTo="0"/>