<net>

   <net-offset>1000.000000,1000.000000</net-offset>
   <conv-boundary>0.000000,0.000000,2000.000000,2000.000000</conv-boundary>
   <orig-boundary>-0.010000,-0.010000,0.010000,0.010000</orig-boundary>
   <orig-proj>!</orig-proj>

   <edges no="60">:1_0 :1_1 :1_2 :1_3 :2_0 :2_1 :2_2 :2_3 :3_0 :3_1 :3_2 :3_3 :4_0 :4_1 :4_2 :4_3 :4_4 :4_5 :4_6 :4_7 :4_8 :4_9 :4_10 :4_11 :4_12 :4_13 :4_14 :4_15 :4_16 :4_17 :4_18 :4_19 :5_0 :5_1 :5_2 :5_3 :6_0 :6_1 :6_2 :6_3 :7_0 :7_1 :7_2 :7_3 a1 a2 a3 a4 a5 a6 a7 a8 b1 b2 b3 b4 b5 b6 b7 b8</edges>
   <edge id=":1_0" function="internal">
      <lanes>
         <lane id=":1_0_0" depart="0" maxspeed="36.00" length="7.90254" >3.25,1001.65 1.11,1001.34 -0.42,1000.43 -1.34,998.89 -1.65,996.75</lane>
      </lanes>
      <cedge id="a1">:1_0_0</cedge>
   </edge>

   <edge id=":1_1" function="internal">
      <lanes>
         <lane id=":1_1_0" depart="0" maxspeed="36.00" length="4.81941" >3.25,1001.65 2.01,1000.83 1.60,1000.00 2.01,999.17 3.25,998.35</lane>
      </lanes>
      <cedge id="b1">:1_1_0</cedge>
   </edge>

   <edge id=":1_2" function="internal">
      <lanes>
         <lane id=":1_2_0" depart="0" maxspeed="36.00" length="2.58035" >1.65,996.75 1.75,997.45 2.05,997.95 2.55,998.25 3.25,998.35</lane>
      </lanes>
      <cedge id="b1">:1_2_0</cedge>
   </edge>

   <edge id=":1_3" function="internal">
      <lanes>
         <lane id=":1_3_0" depart="0" maxspeed="36.00" length="4.81935" >1.65,996.75 0.82,997.99 0.00,998.40 -0.82,997.99 -1.65,996.75</lane>
      </lanes>
      <cedge id="a1">:1_3_0</cedge>
   </edge>

   <edge id=":2_0" function="internal">
      <lanes>
         <lane id=":2_0_0" depart="0" maxspeed="36.00" length="7.90249" >-1.65,3.25 -1.34,1.11 -0.43,-0.42 1.11,-1.34 3.25,-1.65</lane>
      </lanes>
      <cedge id="a2">:2_0_0</cedge>
   </edge>

   <edge id=":2_1" function="internal">
      <lanes>
         <lane id=":2_1_0" depart="0" maxspeed="36.00" length="4.81934" >-1.65,3.25 -0.82,2.01 0.00,1.60 0.82,2.01 1.65,3.25</lane>
      </lanes>
      <cedge id="b8">:2_1_0</cedge>
   </edge>

   <edge id=":2_2" function="internal">
      <lanes>
         <lane id=":2_2_0" depart="0" maxspeed="36.00" length="2.5804" >3.25,1.65 2.55,1.75 2.05,2.05 1.75,2.55 1.65,3.25</lane>
      </lanes>
      <cedge id="b8">:2_2_0</cedge>
   </edge>

   <edge id=":2_3" function="internal">
      <lanes>
         <lane id=":2_3_0" depart="0" maxspeed="36.00" length="4.81934" >3.25,1.65 2.01,0.82 1.60,0.00 2.01,-0.82 3.25,-1.65</lane>
      </lanes>
      <cedge id="a2">:2_3_0</cedge>
   </edge>

   <edge id=":3_0" function="internal">
      <lanes>
         <lane id=":3_0_0" depart="0" maxspeed="36.00" length="2.58035" >998.35,3.25 998.25,2.55 997.95,2.05 997.45,1.75 996.75,1.65</lane>
      </lanes>
      <cedge id="b7">:3_0_0</cedge>
   </edge>

   <edge id=":3_1" function="internal">
      <lanes>
         <lane id=":3_1_0" depart="0" maxspeed="36.00" length="4.81941" >998.35,3.25 999.17,2.01 1000.00,1.60 1000.83,2.01 1001.65,3.25</lane>
      </lanes>
      <cedge id="a3">:3_1_0</cedge>
   </edge>

   <edge id=":3_2" function="internal">
      <lanes>
         <lane id=":3_2_0" depart="0" maxspeed="36.00" length="7.90254" >996.75,-1.65 998.89,-1.34 1000.43,-0.42 1001.34,1.11 1001.65,3.25</lane>
      </lanes>
      <cedge id="a3">:3_2_0</cedge>
   </edge>

   <edge id=":3_3" function="internal">
      <lanes>
         <lane id=":3_3_0" depart="0" maxspeed="36.00" length="4.81935" >996.75,-1.65 997.99,-0.82 998.40,0.00 997.99,0.82 996.75,1.65</lane>
      </lanes>
      <cedge id="b7">:3_3_0</cedge>
   </edge>

   <edge id=":4_0" function="internal">
      <lanes>
         <lane id=":4_0_0" depart="0" maxspeed="36.00" length="4.99943" >998.35,1004.75 998.16,1003.39 997.57,1002.43 996.61,1001.84 995.25,1001.65</lane>
      </lanes>
      <cedge id="a8">:4_0_0</cedge>
   </edge>

   <edge id=":4_1" function="internal">
      <lanes>
         <lane id=":4_1_0" depart="0" maxspeed="36.00" length="9.5" >998.35,1004.75 998.35,995.25</lane>
      </lanes>
      <cedge id="b6">:4_1_0</cedge>
   </edge>

   <edge id=":4_2" function="internal">
      <lanes>
         <lane id=":4_2_0" depart="0" maxspeed="36.00" length="5.21922" >998.35,1004.75 998.75,1001.95 1001.90,998.78</lane>
      </lanes>
      <cedge id=":4_16">:4_2_0</cedge>
   </edge>

   <edge id=":4_16" function="internal">
      <lanes>
         <lane id=":4_16_0" depart="0" maxspeed="36.00" length="5.10249" >1001.90,998.78 1001.95,998.75 1004.75,998.35</lane>
      </lanes>
      <cedge id="b2">:4_16_0</cedge>
   </edge>

   <edge id=":4_3" function="internal">
      <lanes>
         <lane id=":4_3_0" depart="0" maxspeed="36.00" length="4.81943" >998.35,1004.75 999.17,1003.51 1000.00,1003.10 1000.83,1003.51 1001.65,1004.75</lane>
      </lanes>
      <cedge id="a4">:4_3_0</cedge>
   </edge>

   <edge id=":4_4" function="internal">
      <lanes>
         <lane id=":4_4_0" depart="0" maxspeed="36.00" length="4.99943" >1004.75,1001.65 1003.39,1001.84 1002.43,1002.43 1001.84,1003.39 1001.65,1004.75</lane>
      </lanes>
      <cedge id="a4">:4_4_0</cedge>
   </edge>

   <edge id=":4_5" function="internal">
      <lanes>
         <lane id=":4_5_0" depart="0" maxspeed="36.00" length="9.5" >1004.75,1001.65 995.25,1001.65</lane>
      </lanes>
      <cedge id="a8">:4_5_0</cedge>
   </edge>

   <edge id=":4_6" function="internal">
      <lanes>
         <lane id=":4_6_0" depart="0" maxspeed="36.00" length="5.21922" >1004.75,1001.65 1001.95,1001.25 998.78,998.10</lane>
      </lanes>
      <cedge id=":4_17">:4_6_0</cedge>
   </edge>

   <edge id=":4_17" function="internal">
      <lanes>
         <lane id=":4_17_0" depart="0" maxspeed="36.00" length="5.10249" >998.78,998.10 998.75,998.05 998.35,995.25</lane>
      </lanes>
      <cedge id="b6">:4_17_0</cedge>
   </edge>

   <edge id=":4_7" function="internal">
      <lanes>
         <lane id=":4_7_0" depart="0" maxspeed="36.00" length="4.81943" >1004.75,1001.65 1003.51,1000.83 1003.10,1000.00 1003.51,999.17 1004.75,998.35</lane>
      </lanes>
      <cedge id="b2">:4_7_0</cedge>
   </edge>

   <edge id=":4_8" function="internal">
      <lanes>
         <lane id=":4_8_0" depart="0" maxspeed="36.00" length="4.99943" >1001.65,995.25 1001.84,996.61 1002.43,997.57 1003.39,998.16 1004.75,998.35</lane>
      </lanes>
      <cedge id="b2">:4_8_0</cedge>
   </edge>

   <edge id=":4_9" function="internal">
      <lanes>
         <lane id=":4_9_0" depart="0" maxspeed="36.00" length="9.5" >1001.65,995.25 1001.65,1004.75</lane>
      </lanes>
      <cedge id="a4">:4_9_0</cedge>
   </edge>

   <edge id=":4_10" function="internal">
      <lanes>
         <lane id=":4_10_0" depart="0" maxspeed="36.00" length="5.21922" >1001.65,995.25 1001.25,998.05 998.10,1001.22</lane>
      </lanes>
      <cedge id=":4_18">:4_10_0</cedge>
   </edge>

   <edge id=":4_18" function="internal">
      <lanes>
         <lane id=":4_18_0" depart="0" maxspeed="36.00" length="5.10249" >998.10,1001.22 998.05,1001.25 995.25,1001.65</lane>
      </lanes>
      <cedge id="a8">:4_18_0</cedge>
   </edge>

   <edge id=":4_11" function="internal">
      <lanes>
         <lane id=":4_11_0" depart="0" maxspeed="36.00" length="4.81943" >1001.65,995.25 1000.83,996.49 1000.00,996.90 999.17,996.49 998.35,995.25</lane>
      </lanes>
      <cedge id="b6">:4_11_0</cedge>
   </edge>

   <edge id=":4_12" function="internal">
      <lanes>
         <lane id=":4_12_0" depart="0" maxspeed="36.00" length="4.99943" >995.25,998.35 996.61,998.16 997.57,997.57 998.16,996.61 998.35,995.25</lane>
      </lanes>
      <cedge id="b6">:4_12_0</cedge>
   </edge>

   <edge id=":4_13" function="internal">
      <lanes>
         <lane id=":4_13_0" depart="0" maxspeed="36.00" length="9.5" >995.25,998.35 1004.75,998.35</lane>
      </lanes>
      <cedge id="b2">:4_13_0</cedge>
   </edge>

   <edge id=":4_14" function="internal">
      <lanes>
         <lane id=":4_14_0" depart="0" maxspeed="36.00" length="5.21922" >995.25,998.35 998.05,998.75 1001.22,1001.90</lane>
      </lanes>
      <cedge id=":4_19">:4_14_0</cedge>
   </edge>

   <edge id=":4_19" function="internal">
      <lanes>
         <lane id=":4_19_0" depart="0" maxspeed="36.00" length="5.10249" >1001.22,1001.90 1001.25,1001.95 1001.65,1004.75</lane>
      </lanes>
      <cedge id="a4">:4_19_0</cedge>
   </edge>

   <edge id=":4_15" function="internal">
      <lanes>
         <lane id=":4_15_0" depart="0" maxspeed="36.00" length="4.81943" >995.25,998.35 996.49,999.17 996.90,1000.00 996.49,1000.83 995.25,1001.65</lane>
      </lanes>
      <cedge id="a8">:4_15_0</cedge>
   </edge>

   <edge id=":5_0" function="internal">
      <lanes>
         <lane id=":5_0_0" depart="0" maxspeed="36.00" length="7.90256" >1003.25,2001.65 1001.11,2001.34 999.57,2000.43 998.66,1998.89 998.35,1996.75</lane>
      </lanes>
      <cedge id="b5">:5_0_0</cedge>
   </edge>

   <edge id=":5_1" function="internal">
      <lanes>
         <lane id=":5_1_0" depart="0" maxspeed="36.00" length="4.81939" >1003.25,2001.65 1002.01,2000.82 1001.60,2000.00 1002.01,1999.18 1003.25,1998.35</lane>
      </lanes>
      <cedge id="a5">:5_1_0</cedge>
   </edge>

   <edge id=":5_2" function="internal">
      <lanes>
         <lane id=":5_2_0" depart="0" maxspeed="36.00" length="2.58037" >1001.65,1996.75 1001.75,1997.45 1002.05,1997.95 1002.55,1998.25 1003.25,1998.35</lane>
      </lanes>
      <cedge id="a5">:5_2_0</cedge>
   </edge>

   <edge id=":5_3" function="internal">
      <lanes>
         <lane id=":5_3_0" depart="0" maxspeed="36.00" length="4.81943" >1001.65,1996.75 1000.83,1997.99 1000.00,1998.40 999.17,1997.99 998.35,1996.75</lane>
      </lanes>
      <cedge id="b5">:5_3_0</cedge>
   </edge>

   <edge id=":6_0" function="internal">
      <lanes>
         <lane id=":6_0_0" depart="0" maxspeed="36.00" length="7.9025" >2001.65,1996.75 2001.34,1998.89 2000.43,2000.42 1998.89,2001.34 1996.75,2001.65</lane>
      </lanes>
      <cedge id="b4">:6_0_0</cedge>
   </edge>

   <edge id=":6_1" function="internal">
      <lanes>
         <lane id=":6_1_0" depart="0" maxspeed="36.00" length="4.81939" >2001.65,1996.75 2000.82,1997.99 2000.00,1998.40 1999.18,1997.99 1998.35,1996.75</lane>
      </lanes>
      <cedge id="a6">:6_1_0</cedge>
   </edge>

   <edge id=":6_2" function="internal">
      <lanes>
         <lane id=":6_2_0" depart="0" maxspeed="36.00" length="2.58039" >1996.75,1998.35 1997.45,1998.25 1997.95,1997.95 1998.25,1997.45 1998.35,1996.75</lane>
      </lanes>
      <cedge id="a6">:6_2_0</cedge>
   </edge>

   <edge id=":6_3" function="internal">
      <lanes>
         <lane id=":6_3_0" depart="0" maxspeed="36.00" length="4.81939" >1996.75,1998.35 1997.99,1999.18 1998.40,2000.00 1997.99,2000.82 1996.75,2001.65</lane>
      </lanes>
      <cedge id="b4">:6_3_0</cedge>
   </edge>

   <edge id=":7_0" function="internal">
      <lanes>
         <lane id=":7_0_0" depart="0" maxspeed="36.00" length="2.58033" >1998.35,1003.25 1998.25,1002.55 1997.95,1002.05 1997.45,1001.75 1996.75,1001.65</lane>
      </lanes>
      <cedge id="a7">:7_0_0</cedge>
   </edge>

   <edge id=":7_1" function="internal">
      <lanes>
         <lane id=":7_1_0" depart="0" maxspeed="36.00" length="4.81939" >1998.35,1003.25 1999.18,1002.01 2000.00,1001.60 2000.82,1002.01 2001.65,1003.25</lane>
      </lanes>
      <cedge id="b3">:7_1_0</cedge>
   </edge>

   <edge id=":7_2" function="internal">
      <lanes>
         <lane id=":7_2_0" depart="0" maxspeed="36.00" length="7.90252" >1996.75,998.35 1998.89,998.66 2000.42,999.57 2001.34,1001.11 2001.65,1003.25</lane>
      </lanes>
      <cedge id="b3">:7_2_0</cedge>
   </edge>

   <edge id=":7_3" function="internal">
      <lanes>
         <lane id=":7_3_0" depart="0" maxspeed="36.00" length="4.81943" >1996.75,998.35 1997.99,999.17 1998.40,1000.00 1997.99,1000.83 1996.75,1001.65</lane>
      </lanes>
      <cedge id="a7">:7_3_0</cedge>
   </edge>


   <node_count>7</node_count>


   <edge id="a1" Length="993.50" Speed="36.00" Name="a1" NoLanes="1" XFrom="0.00" YFrom="1000.00" XTo="0.00" YTo="0.00" from="1" to="2" Priority="15" Angle="0.00" Type="" function="normal">
      <lanes>
         <lane id="a1_0" depart="1" vclasses="" maxspeed="36.00" length="993.50">-1.65,996.75 -1.65,3.25</lane>
      </lanes>
      <cedge id="a2">a1_0</cedge>
      <cedge id="b8">a1_0</cedge>
   </edge>

   <edge id="a2" Length="993.50" Speed="36.00" Name="a2" NoLanes="1" XFrom="0.00" YFrom="0.00" XTo="1000.00" YTo="0.00" from="2" to="3" Priority="15" Angle="270.00" Type="" function="normal">
      <lanes>
         <lane id="a2_0" depart="1" vclasses="" maxspeed="36.00" length="993.50">3.25,-1.65 996.75,-1.65</lane>
      </lanes>
      <cedge id="a3">a2_0</cedge>
      <cedge id="b7">a2_0</cedge>
   </edge>

   <edge id="a3" Length="992.00" Speed="36.00" Name="a3" NoLanes="1" XFrom="1000.00" YFrom="0.00" XTo="1000.00" YTo="1000.00" from="3" to="4" Priority="15" Angle="180.00" Type="" function="normal">
      <lanes>
         <lane id="a3_0" depart="1" vclasses="" maxspeed="36.00" length="992.00">1001.65,3.25 1001.65,995.25</lane>
      </lanes>
      <cedge id="b2">a3_0</cedge>
      <cedge id="a4">a3_0</cedge>
      <cedge id="a8">a3_0</cedge>
      <cedge id="b6">a3_0</cedge>
   </edge>

   <edge id="a4" Length="992.00" Speed="36.00" Name="a4" NoLanes="1" XFrom="1000.00" YFrom="1000.00" XTo="1000.00" YTo="2000.00" from="4" to="5" Priority="15" Angle="180.00" Type="" function="normal">
      <lanes>
         <lane id="a4_0" depart="1" vclasses="" maxspeed="36.00" length="992.00">1001.65,1004.75 1001.65,1996.75</lane>
      </lanes>
      <cedge id="a5">a4_0</cedge>
      <cedge id="b5">a4_0</cedge>
   </edge>

   <edge id="a5" Length="993.50" Speed="36.00" Name="a5" NoLanes="1" XFrom="1000.00" YFrom="2000.00" XTo="2000.00" YTo="2000.00" from="5" to="6" Priority="15" Angle="270.00" Type="" function="normal">
      <lanes>
         <lane id="a5_0" depart="1" vclasses="" maxspeed="36.00" length="993.50">1003.25,1998.35 1996.75,1998.35</lane>
      </lanes>
      <cedge id="a6">a5_0</cedge>
      <cedge id="b4">a5_0</cedge>
   </edge>

   <edge id="a6" Length="993.50" Speed="36.00" Name="a6" NoLanes="1" XFrom="2000.00" YFrom="2000.00" XTo="2000.00" YTo="1000.00" from="6" to="7" Priority="15" Angle="0.00" Type="" function="normal">
      <lanes>
         <lane id="a6_0" depart="1" vclasses="" maxspeed="36.00" length="993.50">1998.35,1996.75 1998.35,1003.25</lane>
      </lanes>
      <cedge id="a7">a6_0</cedge>
      <cedge id="b3">a6_0</cedge>
   </edge>

   <edge id="a7" Length="992.00" Speed="36.00" Name="a7" NoLanes="1" XFrom="2000.00" YFrom="1000.00" XTo="1000.00" YTo="1000.00" from="7" to="4" Priority="15" Angle="90.00" Type="" function="normal">
      <lanes>
         <lane id="a7_0" depart="1" vclasses="" maxspeed="36.00" length="992.00">1996.75,1001.65 1004.75,1001.65</lane>
      </lanes>
      <cedge id="a4">a7_0</cedge>
      <cedge id="a8">a7_0</cedge>
      <cedge id="b6">a7_0</cedge>
      <cedge id="b2">a7_0</cedge>
   </edge>

   <edge id="a8" Length="992.00" Speed="36.00" Name="a8" NoLanes="1" XFrom="1000.00" YFrom="1000.00" XTo="0.00" YTo="1000.00" from="4" to="1" Priority="15" Angle="90.00" Type="" function="normal">
      <lanes>
         <lane id="a8_0" depart="1" vclasses="" maxspeed="36.00" length="992.00">995.25,1001.65 3.25,1001.65</lane>
      </lanes>
      <cedge id="a1">a8_0</cedge>
      <cedge id="b1">a8_0</cedge>
   </edge>

   <edge id="b1" Length="992.00" Speed="36.00" Name="b1" NoLanes="1" XFrom="0.00" YFrom="1000.00" XTo="1000.00" YTo="1000.00" from="1" to="4" Priority="15" Angle="270.00" Type="" function="normal">
      <lanes>
         <lane id="b1_0" depart="1" vclasses="" maxspeed="36.00" length="992.00">3.25,998.35 995.25,998.35</lane>
      </lanes>
      <cedge id="b6">b1_0</cedge>
      <cedge id="b2">b1_0</cedge>
      <cedge id="a4">b1_0</cedge>
      <cedge id="a8">b1_0</cedge>
   </edge>

   <edge id="b2" Length="992.00" Speed="36.00" Name="b2" NoLanes="1" XFrom="1000.00" YFrom="1000.00" XTo="2000.00" YTo="1000.00" from="4" to="7" Priority="15" Angle="270.00" Type="" function="normal">
      <lanes>
         <lane id="b2_0" depart="1" vclasses="" maxspeed="36.00" length="992.00">1004.75,998.35 1996.75,998.35</lane>
      </lanes>
      <cedge id="b3">b2_0</cedge>
      <cedge id="a7">b2_0</cedge>
   </edge>

   <edge id="b3" Length="993.50" Speed="36.00" Name="b3" NoLanes="1" XFrom="2000.00" YFrom="1000.00" XTo="2000.00" YTo="2000.00" from="7" to="6" Priority="15" Angle="180.00" Type="" function="normal">
      <lanes>
         <lane id="b3_0" depart="1" vclasses="" maxspeed="36.00" length="993.50">2001.65,1003.25 2001.65,1996.75</lane>
      </lanes>
      <cedge id="b4">b3_0</cedge>
      <cedge id="a6">b3_0</cedge>
   </edge>

   <edge id="b4" Length="993.50" Speed="36.00" Name="b4" NoLanes="1" XFrom="2000.00" YFrom="2000.00" XTo="1000.00" YTo="2000.00" from="6" to="5" Priority="15" Angle="90.00" Type="" function="normal">
      <lanes>
         <lane id="b4_0" depart="1" vclasses="" maxspeed="36.00" length="993.50">1996.75,2001.65 1003.25,2001.65</lane>
      </lanes>
      <cedge id="b5">b4_0</cedge>
      <cedge id="a5">b4_0</cedge>
   </edge>

   <edge id="b5" Length="992.00" Speed="36.00" Name="b5" NoLanes="1" XFrom="1000.00" YFrom="2000.00" XTo="1000.00" YTo="1000.00" from="5" to="4" Priority="15" Angle="0.00" Type="" function="normal">
      <lanes>
         <lane id="b5_0" depart="1" vclasses="" maxspeed="36.00" length="992.00">998.35,1996.75 998.35,1004.75</lane>
      </lanes>
      <cedge id="a8">b5_0</cedge>
      <cedge id="b6">b5_0</cedge>
      <cedge id="b2">b5_0</cedge>
      <cedge id="a4">b5_0</cedge>
   </edge>

   <edge id="b6" Length="992.00" Speed="36.00" Name="b6" NoLanes="1" XFrom="1000.00" YFrom="1000.00" XTo="1000.00" YTo="0.00" from="4" to="3" Priority="15" Angle="0.00" Type="" function="normal">
      <lanes>
         <lane id="b6_0" depart="1" vclasses="" maxspeed="36.00" length="992.00">998.35,995.25 998.35,3.25</lane>
      </lanes>
      <cedge id="b7">b6_0</cedge>
      <cedge id="a3">b6_0</cedge>
   </edge>

   <edge id="b7" Length="993.50" Speed="36.00" Name="b7" NoLanes="1" XFrom="1000.00" YFrom="0.00" XTo="0.00" YTo="0.00" from="3" to="2" Priority="15" Angle="90.00" Type="" function="normal">
      <lanes>
         <lane id="b7_0" depart="1" vclasses="" maxspeed="36.00" length="993.50">996.75,1.65 3.25,1.65</lane>
      </lanes>
      <cedge id="b8">b7_0</cedge>
      <cedge id="a2">b7_0</cedge>
   </edge>

   <edge id="b8" Length="993.50" Speed="36.00" Name="b8" NoLanes="1" XFrom="0.00" YFrom="0.00" XTo="0.00" YTo="1000.00" from="2" to="1" Priority="15" Angle="180.00" Type="" function="normal">
      <lanes>
         <lane id="b8_0" depart="1" vclasses="" maxspeed="36.00" length="993.50">1.65,3.25 1.65,996.75</lane>
      </lanes>
      <cedge id="b1">b8_0</cedge>
      <cedge id="a1">b8_0</cedge>
   </edge>


   <row-logic>
      <key>1</key>
      <requestsize>4</requestsize>
      <lanenumber>2</lanenumber>
      <logic>
         <logicitem request="0" response="0000" foes="1000" cont="0"/>
         <logicitem request="1" response="0100" foes="0100" cont="0"/>
         <logicitem request="2" response="0000" foes="0010" cont="0"/>
         <logicitem request="3" response="0001" foes="0001" cont="0"/>
      </logic>
   </row-logic>

   <row-logic>
      <key>2</key>
      <requestsize>4</requestsize>
      <lanenumber>2</lanenumber>
      <logic>
         <logicitem request="0" response="0000" foes="1000" cont="0"/>
         <logicitem request="1" response="0100" foes="0100" cont="0"/>
         <logicitem request="2" response="0000" foes="0010" cont="0"/>
         <logicitem request="3" response="0001" foes="0001" cont="0"/>
      </logic>
   </row-logic>

   <row-logic>
      <key>3</key>
      <requestsize>4</requestsize>
      <lanenumber>2</lanenumber>
      <logic>
         <logicitem request="0" response="0000" foes="1000" cont="0"/>
         <logicitem request="1" response="0100" foes="0100" cont="0"/>
         <logicitem request="2" response="0000" foes="0010" cont="0"/>
         <logicitem request="3" response="0001" foes="0001" cont="0"/>
      </logic>
   </row-logic>

   <row-logic>
      <key>4</key>
      <requestsize>16</requestsize>
      <lanenumber>4</lanenumber>
      <logic>
         <logicitem request="0" response="0000000000000000" foes="1000010000100000" cont="0"/>
         <logicitem request="1" response="0111000000000000" foes="0111110001100000" cont="0"/>
         <logicitem request="2" response="0110001100000000" foes="0110001111100000" cont="1"/>
         <logicitem request="3" response="0100001000010000" foes="0100001000010000" cont="0"/>
         <logicitem request="4" response="0000000000000000" foes="0100001000001000" cont="0"/>
         <logicitem request="5" response="0000000000000111" foes="1100011000000111" cont="0"/>
         <logicitem request="6" response="0011000000000110" foes="0011111000000110" cont="1"/>
         <logicitem request="7" response="0010000100000100" foes="0010000100000100" cont="0"/>
         <logicitem request="8" response="0000000000000000" foes="0010000010000100" cont="0"/>
         <logicitem request="9" response="0000000001110000" foes="0110000001111100" cont="0"/>
         <logicitem request="10" response="0000000001100011" foes="1110000001100011" cont="1"/>
         <logicitem request="11" response="0001000001000010" foes="0001000001000010" cont="0"/>
         <logicitem request="12" response="0000000000000000" foes="0000100001000010" cont="0"/>
         <logicitem request="13" response="0000011100000000" foes="0000011111000110" cont="0"/>
         <logicitem request="14" response="0000011000110000" foes="0000011000111110" cont="1"/>
         <logicitem request="15" response="0000010000100001" foes="0000010000100001" cont="0"/>
      </logic>
   </row-logic>

   <row-logic>
      <key>5</key>
      <requestsize>4</requestsize>
      <lanenumber>2</lanenumber>
      <logic>
         <logicitem request="0" response="0000" foes="1000" cont="0"/>
         <logicitem request="1" response="0100" foes="0100" cont="0"/>
         <logicitem request="2" response="0000" foes="0010" cont="0"/>
         <logicitem request="3" response="0001" foes="0001" cont="0"/>
      </logic>
   </row-logic>

   <row-logic>
      <key>6</key>
      <requestsize>4</requestsize>
      <lanenumber>2</lanenumber>
      <logic>
         <logicitem request="0" response="0000" foes="1000" cont="0"/>
         <logicitem request="1" response="0100" foes="0100" cont="0"/>
         <logicitem request="2" response="0000" foes="0010" cont="0"/>
         <logicitem request="3" response="0001" foes="0001" cont="0"/>
      </logic>
   </row-logic>

   <row-logic>
      <key>7</key>
      <requestsize>4</requestsize>
      <lanenumber>2</lanenumber>
      <logic>
         <logicitem request="0" response="0000" foes="1000" cont="0"/>
         <logicitem request="1" response="0100" foes="0100" cont="0"/>
         <logicitem request="2" response="0000" foes="0010" cont="0"/>
         <logicitem request="3" response="0001" foes="0001" cont="0"/>
      </logic>
   </row-logic>


   <tl-logic type="static">
      <key>4</key>
      <subkey>0</subkey>
      <phaseno>8</phaseno>
      <offset>0</offset>
      <phase duration="31" phase="0000111100001111" brake="1111110011111100" yellow="0000000000000000"/>
      <phase duration="12" phase="0000110000001100" brake="1111111111111111" yellow="0000001100000011"/>
      <phase duration="6" phase="0000110000001100" brake="1111001111110011" yellow="0000000000000000"/>
      <phase duration="12" phase="0000000000000000" brake="1111111111111111" yellow="0000110000001100"/>
      <phase duration="31" phase="1111000011110000" brake="1100111111001111" yellow="0000000000000000"/>
      <phase duration="12" phase="1100000011000000" brake="1111111111111111" yellow="0011000000110000"/>
      <phase duration="6" phase="1100000011000000" brake="0011111100111111" yellow="0000000000000000"/>
      <phase duration="12" phase="0000000000000000" brake="1111111111111111" yellow="1100000011000000"/>
   </tl-logic>


   <junction id="1" type="priority" x="0.00" y="1000.00">
      <inclanes>a8_0 b8_0</inclanes>
      <intlanes>:1_0_0 :1_1_0 :1_2_0 :1_3_0</intlanes>
      <shape>3.25,1003.25 3.25,996.75 -3.25,996.75</shape>
   </junction>

   <junction id="2" type="priority" x="0.00" y="0.00">
      <inclanes>a1_0 b7_0</inclanes>
      <intlanes>:2_0_0 :2_1_0 :2_2_0 :2_3_0</intlanes>
      <shape>-3.25,3.25 3.25,3.25 3.25,-3.25</shape>
   </junction>

   <junction id="3" type="priority" x="1000.00" y="0.00">
      <inclanes>b6_0 a2_0</inclanes>
      <intlanes>:3_0_0 :3_1_0 :3_2_0 :3_3_0</intlanes>
      <shape>996.75,3.25 1003.25,3.25 996.75,-3.25 996.75,3.25</shape>
   </junction>

   <junction id="4" type="priority" x="1000.00" y="1000.00">
      <inclanes>b5_0 a7_0 a3_0 b1_0</inclanes>
      <intlanes>:4_0_0 :4_1_0 :4_2_0 :4_3_0 :4_4_0 :4_5_0 :4_6_0 :4_7_0 :4_8_0 :4_9_0 :4_10_0 :4_11_0 :4_12_0 :4_13_0 :4_14_0 :4_15_0</intlanes>
      <shape>996.75,1004.75 1003.25,1004.75 1004.75,1003.25 1004.75,996.75 1003.25,995.25 996.75,995.25 995.25,996.75 995.25,1003.25</shape>
   </junction>

   <junction id="5" type="priority" x="1000.00" y="2000.00">
      <inclanes>b4_0 a4_0</inclanes>
      <intlanes>:5_0_0 :5_1_0 :5_2_0 :5_3_0</intlanes>
      <shape>1003.25,2003.25 1003.25,1996.75 996.75,1996.75</shape>
   </junction>

   <junction id="6" type="priority" x="2000.00" y="2000.00">
      <inclanes>b3_0 a5_0</inclanes>
      <intlanes>:6_0_0 :6_1_0 :6_2_0 :6_3_0</intlanes>
      <shape>2003.25,1996.75 1996.75,1996.75 1996.75,2003.25</shape>
   </junction>

   <junction id="7" type="priority" x="2000.00" y="1000.00">
      <inclanes>a6_0 b2_0</inclanes>
      <intlanes>:7_0_0 :7_1_0 :7_2_0 :7_3_0</intlanes>
      <shape>1996.75,1003.25 2003.25,1003.25 1996.75,996.75 1996.75,1003.25</shape>
   </junction>


   <junction id=":4_16_0" type="internal" x="1000.00" y="999.92">
      <inclanes>:4_2_0 a3_0</inclanes>
      <intlanes>:4_8_0 :4_9_0</intlanes>
      <shape></shape>
   </junction>

   <junction id=":4_17_0" type="internal" x="999.92" y="1000.00">
      <inclanes>:4_6_0 b1_0</inclanes>
      <intlanes>:4_12_0 :4_13_0</intlanes>
      <shape></shape>
   </junction>

   <junction id=":4_18_0" type="internal" x="1000.00" y="1000.08">
      <inclanes>:4_10_0 b5_0</inclanes>
      <intlanes>:4_0_0 :4_1_0</intlanes>
      <shape></shape>
   </junction>

   <junction id=":4_19_0" type="internal" x="1000.08" y="1000.00">
      <inclanes>:4_14_0 a7_0</inclanes>
      <intlanes>:4_4_0 :4_5_0</intlanes>
      <shape></shape>
   </junction>


   <succ edge="a1" lane="a1_0" junction="2">
      <succlane lane="a2_0" via=":2_0_0" yield="0" dir="l" state="M"/>
      <succlane lane="b8_0" via=":2_1_0" yield="1" dir="t" state="m"/>
   </succ>

   <succ edge="a2" lane="a2_0" junction="3">
      <succlane lane="a3_0" via=":3_2_0" yield="0" dir="l" state="M"/>
      <succlane lane="b7_0" via=":3_3_0" yield="1" dir="t" state="m"/>
   </succ>

   <succ edge="a3" lane="a3_0" junction="4">
      <succlane lane="b2_0" via=":4_8_0" tl="4" linkno="8" yield="1" dir="r" state="t"/>
      <succlane lane="a4_0" via=":4_9_0" tl="4" linkno="9" yield="1" dir="s" state="t"/>
      <succlane lane="a8_0" via=":4_10_0" tl="4" linkno="10" yield="1" dir="l" state="t"/>
      <succlane lane="b6_0" via=":4_11_0" tl="4" linkno="11" yield="1" dir="t" state="t"/>
   </succ>

   <succ edge="a4" lane="a4_0" junction="5">
      <succlane lane="a5_0" via=":5_2_0" yield="0" dir="r" state="M"/>
      <succlane lane="b5_0" via=":5_3_0" yield="1" dir="t" state="m"/>
   </succ>

   <succ edge="a5" lane="a5_0" junction="6">
      <succlane lane="a6_0" via=":6_2_0" yield="0" dir="r" state="M"/>
      <succlane lane="b4_0" via=":6_3_0" yield="1" dir="t" state="m"/>
   </succ>

   <succ edge="a6" lane="a6_0" junction="7">
      <succlane lane="a7_0" via=":7_0_0" yield="0" dir="r" state="M"/>
      <succlane lane="b3_0" via=":7_1_0" yield="1" dir="t" state="m"/>
   </succ>

   <succ edge="a7" lane="a7_0" junction="4">
      <succlane lane="a4_0" via=":4_4_0" tl="4" linkno="4" yield="1" dir="r" state="t"/>
      <succlane lane="a8_0" via=":4_5_0" tl="4" linkno="5" yield="1" dir="s" state="t"/>
      <succlane lane="b6_0" via=":4_6_0" tl="4" linkno="6" yield="1" dir="l" state="t"/>
      <succlane lane="b2_0" via=":4_7_0" tl="4" linkno="7" yield="1" dir="t" state="t"/>
   </succ>

   <succ edge="a8" lane="a8_0" junction="1">
      <succlane lane="a1_0" via=":1_0_0" yield="0" dir="l" state="M"/>
      <succlane lane="b1_0" via=":1_1_0" yield="1" dir="t" state="m"/>
   </succ>

   <succ edge="b1" lane="b1_0" junction="4">
      <succlane lane="b6_0" via=":4_12_0" tl="4" linkno="12" yield="1" dir="r" state="t"/>
      <succlane lane="b2_0" via=":4_13_0" tl="4" linkno="13" yield="1" dir="s" state="t"/>
      <succlane lane="a4_0" via=":4_14_0" tl="4" linkno="14" yield="1" dir="l" state="t"/>
      <succlane lane="a8_0" via=":4_15_0" tl="4" linkno="15" yield="1" dir="t" state="t"/>
   </succ>

   <succ edge="b2" lane="b2_0" junction="7">
      <succlane lane="b3_0" via=":7_2_0" yield="0" dir="l" state="M"/>
      <succlane lane="a7_0" via=":7_3_0" yield="1" dir="t" state="m"/>
   </succ>

   <succ edge="b3" lane="b3_0" junction="6">
      <succlane lane="b4_0" via=":6_0_0" yield="0" dir="l" state="M"/>
      <succlane lane="a6_0" via=":6_1_0" yield="1" dir="t" state="m"/>
   </succ>

   <succ edge="b4" lane="b4_0" junction="5">
      <succlane lane="b5_0" via=":5_0_0" yield="0" dir="l" state="M"/>
      <succlane lane="a5_0" via=":5_1_0" yield="1" dir="t" state="m"/>
   </succ>

   <succ edge="b5" lane="b5_0" junction="4">