<?xml version="1.0" encoding="UTF-8"?>

<!-- generated on Wed May 23 10:09:30 2018 by Eclipse SUMO netconvert Version cc0b5f1
This data file and the accompanying materials
are made available under the terms of the Eclipse Public License v2.0
which accompanies this distribution, and is available at
http://www.eclipse.org/legal/epl-v20.html
SPDX-License-Identifier: EPL-2.0
<configuration xmlns:xsi="http://www.w3.org/2001/XMLSchema-instance" xsi:noNamespaceSchemaLocation="http://sumo.dlr.de/xsd/netconvertConfiguration.xsd">

    <input>
        <osm-files value="osm.xml"/>
    </input>

    <output>
        <write-license value="true"/>
    </output>

    <projection>
        <proj.utm value="true"/>
    </projection>

    <edge_removal>
        <keep-edges.by-vclass value="passenger"/>
        <remove-edges.by-type value="highway.track,highway.services"/>
    </edge_removal>

    <processing>
        <geometry.remove value="true"/>
        <junctions.join value="true"/>
    </processing>

    <report>
        <xml-validation value="never"/>
    </report>

</configuration>
-->

<net version="0.27" xmlns:xsi="http://www.w3.org/2001/XMLSchema-instance" xsi:noNamespaceSchemaLocation="http://sumo.dlr.de/xsd/net_file.xsd">

    <location netOffset="-348679.46,-5644774.75" convBoundary="0.00,0.00,386.13,566.74" origBoundary="6.816498,50.934774,6.883134,50.939887" projParameter="+proj=utm +zone=32 +ellps=WGS84 +datum=WGS84 +units=m +no_defs"/>

    <type id="highway.bridleway" priority="1" numLanes="1" speed="2.78" allow="pedestrian" oneway="1" width="2.00"/>
    <type id="highway.bus_guideway" priority="1" numLanes="1" speed="27.78" allow="bus" oneway="1"/>
    <type id="highway.cycleway" priority="1" numLanes="1" speed="8.33" allow="bicycle" oneway="0" width="1.00"/>
    <type id="highway.footway" priority="1" numLanes="1" speed="2.78" allow="pedestrian" oneway="1" width="2.00"/>
    <type id="highway.ford" priority="1" numLanes="1" speed="2.78" allow="army" oneway="0"/>
    <type id="highway.living_street" priority="3" numLanes="1" speed="2.78" disallow="tram rail_urban rail rail_electric ship" oneway="0"/>
    <type id="highway.motorway" priority="13" numLanes="2" speed="44.44" allow="private emergency authority army vip passenger hov taxi bus coach delivery truck trailer motorcycle evehicle custom1 custom2" oneway="1"/>
    <type id="highway.motorway_link" priority="12" numLanes="1" speed="22.22" allow="private emergency authority army vip passenger hov taxi bus coach delivery truck trailer motorcycle evehicle custom1 custom2" oneway="1"/>
    <type id="highway.path" priority="1" numLanes="1" speed="2.78" allow="bicycle pedestrian" oneway="1" width="2.00"/>
    <type id="highway.pedestrian" priority="1" numLanes="1" speed="2.78" allow="pedestrian" oneway="1" width="2.00"/>
    <type id="highway.primary" priority="9" numLanes="2" speed="27.78" disallow="tram rail_urban rail rail_electric ship" oneway="0"/>
    <type id="highway.primary_link" priority="8" numLanes="1" speed="22.22" disallow="tram rail_urban rail rail_electric ship" oneway="0"/>
    <type id="highway.raceway" priority="14" numLanes="2" speed="83.33" allow="vip" oneway="0"/>
    <type id="highway.residential" priority="4" numLanes="1" speed="13.89" disallow="tram rail_urban rail rail_electric ship" oneway="0"/>
    <type id="highway.secondary" priority="7" numLanes="2" speed="27.78" disallow="tram rail_urban rail rail_electric ship" oneway="0"/>
    <type id="highway.secondary_link" priority="6" numLanes="1" speed="22.22" disallow="tram rail_urban rail rail_electric ship" oneway="0"/>
    <type id="highway.service" priority="2" numLanes="1" speed="5.56" allow="delivery bicycle pedestrian" oneway="0"/>
    <type id="highway.services" priority="1" numLanes="1" speed="8.33" disallow="tram rail_urban rail rail_electric ship" oneway="0"/>
    <type id="highway.stairs" priority="1" numLanes="1" speed="1.39" allow="pedestrian" oneway="1" width="2.00"/>
    <type id="highway.step" priority="1" numLanes="1" speed="1.39" allow="pedestrian" oneway="1" width="2.00"/>
    <type id="highway.steps" priority="1" numLanes="1" speed="1.39" allow="pedestrian" oneway="1" width="2.00"/>
    <type id="highway.tertiary" priority="6" numLanes="1" speed="22.22" disallow="tram rail_urban rail rail_electric ship" oneway="0"/>
    <type id="highway.tertiary_link" priority="5" numLanes="1" speed="22.22" disallow="tram rail_urban rail rail_electric ship" oneway="0"/>
    <type id="highway.track" priority="1" numLanes="1" speed="5.56" disallow="tram rail_urban rail rail_electric ship" oneway="0"/>
    <type id="highway.trunk" priority="11" numLanes="2" speed="27.78" disallow="tram rail_urban rail rail_electric bicycle pedestrian ship" oneway="0"/>
    <type id="highway.trunk_link" priority="10" numLanes="1" speed="22.22" disallow="tram rail_urban rail rail_electric bicycle pedestrian ship" oneway="0"/>
    <type id="highway.unclassified" priority="5" numLanes="1" speed="13.89" disallow="tram rail_urban rail rail_electric ship" oneway="0"/>
    <type id="highway.unsurfaced" priority="1" numLanes="1" speed="8.33" disallow="tram rail_urban rail rail_electric ship" oneway="0"/>
    <type id="railway.light_rail" priority="15" numLanes="1" speed="27.78" allow="rail_urban" oneway="1"/>
    <type id="railway.preserved" priority="15" numLanes="1" speed="27.78" allow="rail" oneway="1"/>
    <type id="railway.rail" priority="15" numLanes="1" speed="83.33" allow="rail rail_electric" oneway="1"/>
    <type id="railway.subway" priority="15" numLanes="1" speed="27.78" allow="rail_urban" oneway="1"/>
    <type id="railway.tram" priority="15" numLanes="1" speed="13.89" allow="tram" oneway="1"/>

    <edge id=":12688349_0" function="internal">
        <lane id=":12688349_0_0" index="0" allow="private emergency authority army vip passenger hov taxi bus coach delivery truck trailer motorcycle evehicle custom1 custom2" speed="13.89" length="9.89" shape="265.74,318.51 266.55,321.29 267.49,323.05 268.71,324.70 270.37,327.14"/>
    </edge>
    <edge id=":12688349_1" function="internal">
        <lane id=":12688349_1_0" index="0" allow="private emergency authority army vip passenger hov taxi bus coach delivery truck trailer motorcycle evehicle custom1 custom2" speed="13.89" length="10.96" shape="262.62,319.20 263.50,322.29 264.50,324.26 265.82,326.11 267.65,328.82"/>
    </edge>
    <edge id=":12688349_2" function="internal">
        <lane id=":12688349_2_0" index="0" allow="private emergency authority army vip passenger hov taxi bus coach delivery truck trailer motorcycle evehicle custom1 custom2" speed="13.89" length="10.50" shape="262.62,319.20 263.30,322.34 263.67,324.51 263.84,326.70 263.93,329.91"/>
        <lane id=":12688349_2_1" index="1" allow="private emergency authority army vip passenger hov taxi bus coach delivery truck trailer motorcycle evehicle custom1 custom2" speed="13.89" length="10.50" shape="259.49,319.89 260.13,322.85 260.48,324.89 260.65,326.95 260.73,329.97"/>
    </edge>
    <edge id=":1673186147_0" function="internal">
        <lane id=":1673186147_0_0" index="0" disallow="tram rail_urban rail rail_electric ship" speed="13.89" length="3.22" shape="193.49,357.85 194.39,357.76 195.00,357.65 195.61,357.51 196.49,357.32"/>
        <lane id=":1673186147_0_1" index="1" disallow="tram rail_urban rail rail_electric ship" speed="13.89" length="3.22" shape="193.73,361.04 194.73,360.94 195.40,360.83 196.08,360.68 197.06,360.47"/>
    </edge>
    <edge id=":1673186147_2" function="internal">
        <lane id=":1673186147_2_0" index="0" disallow="tram rail_urban rail rail_electric ship" speed="13.89" length="4.12" shape="193.73,361.04 196.64,358.11"/>
    </edge>
    <edge id=":1673186147_3" function="internal">
        <lane id=":1673186147_3_0" index="0" disallow="tram rail_urban rail rail_electric ship" speed="13.89" length="3.54" shape="193.73,361.04 194.77,361.01 195.48,361.09 196.19,361.24 197.23,361.43"/>
    </edge>
    <edge id=":2078932912_0" function="internal">
        <lane id=":2078932912_0_0" index="0" allow="private emergency authority army vip passenger hov taxi bus coach delivery truck trailer motorcycle evehicle custom1 custom2" speed="22.22" length="22.93" shape="197.52,274.55 196.79,266.88 195.78,260.80 194.75,255.93 193.94,251.93"/>
    </edge>
    <edge id=":2078932912_1" function="internal">
        <lane id=":2078932912_1_0" index="0" allow="private emergency authority army vip passenger hov taxi bus coach delivery truck trailer motorcycle evehicle custom1 custom2" speed="22.22" length="23.13" shape="200.72,274.36 199.99,267.55 199.02,262.95 198.03,258.34 197.26,251.54"/>
        <lane id=":2078932912_1_1" index="1" allow="private emergency authority army vip passenger hov taxi bus coach delivery truck trailer motorcycle evehicle custom1 custom2" speed="22.22" length="23.13" shape="203.91,274.16 203.19,267.35 202.21,262.74 201.22,258.13 200.45,251.32"/>
        <lane id=":2078932912_1_2" index="2" allow="private emergency authority army vip passenger hov taxi bus coach delivery truck trailer motorcycle evehicle custom1 custom2" speed="22.22" length="23.13" shape="207.11,273.97 206.38,267.15 205.41,262.54 204.42,257.92 203.65,251.11"/>
    </edge>
    <edge id=":3664309572_0" function="internal">
        <lane id=":3664309572_0_0" index="0" disallow="tram rail_urban rail rail_electric ship" speed="13.89" length="0.24" shape="232.19,359.01 232.48,359.00"/>
        <lane id=":3664309572_0_1" index="1" disallow="tram rail_urban rail rail_electric ship" speed="13.89" length="0.24" shape="232.40,362.21 232.58,362.20"/>
    </edge>
    <edge id=":443096_0" function="internal">
        <lane id=":443096_0_0" index="0" allow="private emergency authority army vip passenger hov taxi bus coach delivery truck trailer motorcycle evehicle custom1 custom2" speed="18.05" length="6.58" shape="300.79,372.84 298.89,373.10 297.65,373.58 296.50,374.32 294.85,375.39"/>
    </edge>
    <edge id=":443096_1" function="internal">
        <lane id=":443096_1_0" index="0" disallow="tram rail_urban rail rail_electric ship" speed="13.89" length="7.23" shape="300.56,369.64 298.48,370.05 297.13,370.70 295.78,371.35 293.71,371.76"/>
        <lane id=":443096_1_1" index="1" disallow="tram rail_urban rail rail_electric ship" speed="13.89" length="7.23" shape="300.33,366.45 298.25,366.86 296.90,367.51 295.55,368.16 293.47,368.57"/>
    </edge>
    <edge id=":443098_0" function="internal">
        <lane id=":443098_0_0" index="0" allow="private emergency authority army vip passenger hov taxi bus coach delivery truck trailer motorcycle evehicle custom1 custom2" speed="22.22" length="6.09" shape="273.11,394.75 272.02,396.20 271.27,397.24 270.81,398.38 270.58,400.13"/>
    </edge>
    <edge id=":443098_1" function="internal">
        <lane id=":443098_1_0" index="0" allow="private emergency authority army vip passenger hov taxi bus coach delivery truck trailer motorcycle evehicle custom1 custom2" speed="22.22" length="5.98" shape="269.04,393.95 269.61,395.78 270.15,397.02 270.52,398.26 270.58,400.13"/>
        <lane id=":443098_1_1" index="1" allow="private emergency authority army vip passenger hov taxi bus coach delivery truck trailer motorcycle evehicle custom1 custom2" speed="22.22" length="5.98" shape="265.92,394.67 266.43,396.23 266.94,397.28 267.31,398.34 267.38,399.94"/>
    </edge>
    <edge id=":885182878_0" function="internal">
        <lane id=":885182878_0_0" index="0" allow="private emergency authority army vip passenger hov taxi bus coach delivery truck trailer motorcycle evehicle custom1 custom2" speed="13.89" length="0.88" shape="278.47,339.05 278.55,339.15 278.61,339.22 278.67,339.28 278.77,339.36"/>
        <lane id=":885182878_0_1" index="1" allow="private emergency authority army vip passenger hov taxi bus coach delivery truck trailer motorcycle evehicle custom1 custom2" speed="13.89" length="0.88" shape="275.88,340.92 276.11,341.23 276.28,341.44 276.48,341.62 276.78,341.87"/>
    </edge>
    <edge id=":cluster_1453571442_443097_0" function="internal">
        <lane id=":cluster_1453571442_443097_0_0" index="0" disallow="tram rail_urban rail rail_electric ship" speed="13.89" length="12.87" shape="286.22,345.27 288.78,347.70 290.55,349.61 292.55,350.80 295.79,351.07"/>
        <lane id=":cluster_1453571442_443097_0_1" index="1" disallow="tram rail_urban rail rail_electric ship" speed="13.89" length="12.87" shape="284.23,347.78 287.34,350.61 289.56,352.74 292.06,354.01 295.98,354.27"/>
    </edge>
    <edge id=":cluster_1453571442_443097_2" function="internal">
        <lane id=":cluster_1453571442_443097_2_0" index="0" disallow="tram rail_urban rail rail_electric ship" speed="13.89" length="12.86" shape="282.97,351.62 295.79,351.07"/>
        <lane id=":cluster_1453571442_443097_2_1" index="1" disallow="tram rail_urban rail rail_electric ship" speed="13.89" length="12.86" shape="283.10,354.82 295.98,354.27"/>
    </edge>
    <edge id=":cluster_1453571443_1453571529_1673186148_1673186150_1673186155_26110606_3548410413_3548410415_3664309015_443103_885182683_959615956_959615960_0" function="internal">
        <lane id=":cluster_1453571443_1453571529_1673186148_1673186150_1673186155_26110606_3548410413_3548410415_3664309015_443103_885182683_959615956_959615960_0_0" index="0" allow="private emergency authority army vip passenger hov taxi bus coach delivery truck trailer motorcycle evehicle custom1 custom2" speed="18.05" length="5.93" shape="267.58,373.69 266.15,374.06 265.26,374.91 264.91,376.25 265.11,378.07"/>
    </edge>
    <edge id=":cluster_1453571443_1453571529_1673186148_1673186150_1673186155_26110606_3548410413_3548410415_3664309015_443103_885182683_959615956_959615960_1" function="internal">
        <lane id=":cluster_1453571443_1453571529_1673186148_1673186150_1673186155_26110606_3548410413_3548410415_3664309015_443103_885182683_959615956_959615960_1_0" index="0" disallow="tram rail_urban rail rail_electric ship" speed="13.89" length="24.12" shape="267.58,373.69 243.59,375.17"/>
        <lane id=":cluster_1453571443_1453571529_1673186148_1673186150_1673186155_26110606_3548410413_3548410415_3664309015_443103_885182683_959615956_959615960_1_1" index="1" disallow="tram rail_urban rail rail_electric ship" speed="13.89" length="24.12" shape="267.46,370.49 243.31,371.99"/>
    </edge>
    <edge id=":cluster_1453571443_1453571529_1673186148_1673186150_1673186155_26110606_3548410413_3548410415_3664309015_443103_885182683_959615956_959615960_3" function="internal">
        <lane id=":cluster_1453571443_1453571529_1673186148_1673186150_1673186155_26110606_3548410413_3548410415_3664309015_443103_885182683_959615956_959615960_3_0" index="0" disallow="tram rail_urban rail rail_electric ship" speed="13.89" length="10.06" shape="267.46,370.49 261.69,366.94 260.11,364.06"/>
    </edge>
    <edge id=":cluster_1453571443_1453571529_1673186148_1673186150_1673186155_26110606_3548410413_3548410415_3664309015_443103_885182683_959615956_959615960_16" function="internal">
        <lane id=":cluster_1453571443_1453571529_1673186148_1673186150_1673186155_26110606_3548410413_3548410415_3664309015_443103_885182683_959615956_959615960_16_0" index="0" speed="13.89" length="11.90" shape="260.11,364.06 259.67,363.26 261.41,359.43 266.91,355.46"/>
    </edge>
    <edge id=":cluster_1453571443_1453571529_1673186148_1673186150_1673186155_26110606_3548410413_3548410415_3664309015_443103_885182683_959615956_959615960_4" function="internal">
        <lane id=":cluster_1453571443_1453571529_1673186148_1673186150_1673186155_26110606_3548410413_3548410415_3664309015_443103_885182683_959615956_959615960_4_0" index="0" disallow="tram rail_urban rail rail_electric ship" speed="13.89" length="12.54" shape="263.55,341.45 263.28,346.25 263.73,349.65 264.90,351.66 266.79,352.27"/>
    </edge>
    <edge id=":cluster_1453571443_1453571529_1673186148_1673186150_1673186155_26110606_3548410413_3548410415_3664309015_443103_885182683_959615956_959615960_5" function="internal">
        <lane id=":cluster_1453571443_1453571529_1673186148_1673186150_1673186155_26110606_3548410413_3548410415_3664309015_443103_885182683_959615956_959615960_5_0" index="0" allow="private emergency authority army vip passenger hov taxi bus coach delivery truck trailer motorcycle evehicle custom1 custom2" speed="18.05" length="37.30" shape="263.55,341.45 263.00,349.99 263.08,359.83 263.78,369.63 265.11,378.07"/>
        <lane id=":cluster_1453571443_1453571529_1673186148_1673186150_1673186155_26110606_3548410413_3548410415_3664309015_443103_885182683_959615956_959615960_5_1" index="1" allow="private emergency authority army vip passenger hov taxi bus coach delivery truck trailer motorcycle evehicle custom1 custom2" speed="18.05" length="37.30" shape="260.37,341.09 259.83,349.79 259.93,360.00 260.64,370.17 261.98,378.78"/>
    </edge>
    <edge id=":cluster_1453571443_1453571529_1673186148_1673186150_1673186155_26110606_3548410413_3548410415_3664309015_443103_885182683_959615956_959615960_7" function="internal">
        <lane id=":cluster_1453571443_1453571529_1673186148_1673186150_1673186155_26110606_3548410413_3548410415_3664309015_443103_885182683_959615956_959615960_7_0" index="0" disallow="tram rail_urban rail rail_electric ship" speed="13.89" length="37.79" shape="260.37,341.09 258.02,354.17 254.39,363.68 249.49,369.62 243.31,371.99"/>
    </edge>
    <edge id=":cluster_1453571443_1453571529_1673186148_1673186150_1673186155_26110606_3548410413_3548410415_3664309015_443103_885182683_959615956_959615960_8" function="internal">
        <lane id=":cluster_1453571443_1453571529_1673186148_1673186150_1673186155_26110606_3548410413_3548410415_3664309015_443103_885182683_959615956_959615960_8_0" index="0" disallow="tram rail_urban rail rail_electric ship" speed="13.89" length="16.75" shape="250.16,352.67 266.79,352.27"/>
        <lane id=":cluster_1453571443_1453571529_1673186148_1673186150_1673186155_26110606_3548410413_3548410415_3664309015_443103_885182683_959615956_959615960_8_1" index="1" disallow="tram rail_urban rail rail_electric ship" speed="13.89" length="16.75" shape="250.04,355.87 266.91,355.46"/>
    </edge>
    <edge id=":cluster_1453571443_1453571529_1673186148_1673186150_1673186155_26110606_3548410413_3548410415_3664309015_443103_885182683_959615956_959615960_10" function="internal">
        <lane id=":cluster_1453571443_1453571529_1673186148_1673186150_1673186155_26110606_3548410413_3548410415_3664309015_443103_885182683_959615956_959615960_10_0" index="0" allow="private emergency authority army vip passenger hov taxi bus coach delivery truck trailer motorcycle evehicle custom1 custom2" speed="18.05" length="15.43" shape="250.04,355.87 253.35,357.40 256.45,361.73 258.87,367.71"/>
    </edge>
    <edge id=":cluster_1453571443_1453571529_1673186148_1673186150_1673186155_26110606_3548410413_3548410415_3664309015_443103_885182683_959615956_959615960_11" function="internal">
        <lane id=":cluster_1453571443_1453571529_1673186148_1673186150_1673186155_26110606_3548410413_3548410415_3664309015_443103_885182683_959615956_959615960_11_0" index="0" disallow="tram rail_urban rail rail_electric ship" speed="13.89" length="25.51" shape="250.04,355.87 254.40,362.42 254.73,367.29 251.04,370.48 243.31,371.99"/>
    </edge>
    <edge id=":cluster_1453571443_1453571529_1673186148_1673186150_1673186155_26110606_3548410413_3548410415_3664309015_443103_885182683_959615956_959615960_17" function="internal">
        <lane id=":cluster_1453571443_1453571529_1673186148_1673186150_1673186155_26110606_3548410413_3548410415_3664309015_443103_885182683_959615956_959615960_17_0" index="0" speed="18.05" length="11.50" shape="258.87,367.71 259.33,368.85 261.98,378.78"/>
    </edge>
    <edge id=":cluster_1453571443_1453571529_1673186148_1673186150_1673186155_26110606_3548410413_3548410415_3664309015_443103_885182683_959615956_959615960_12" function="internal">
        <lane id=":cluster_1453571443_1453571529_1673186148_1673186150_1673186155_26110606_3548410413_3548410415_3664309015_443103_885182683_959615956_959615960_12_0" index="0" disallow="tram rail_urban rail rail_electric ship" speed="13.89" length="20.54" shape="253.10,364.16 257.37,364.10 259.57,359.90 261.96,354.86 266.79,352.27"/>
        <lane id=":cluster_1453571443_1453571529_1673186148_1673186150_1673186155_26110606_3548410413_3548410415_3664309015_443103_885182683_959615956_959615960_12_1" index="1" disallow="tram rail_urban rail rail_electric ship" speed="13.89" length="20.54" shape="251.64,367.01 256.27,367.10 258.88,363.02 261.68,358.04 266.91,355.46"/>
    </edge>
    <edge id=":cluster_1453571443_1453571529_1673186148_1673186150_1673186155_26110606_3548410413_3548410415_3664309015_443103_885182683_959615956_959615960_14" function="internal">
        <lane id=":cluster_1453571443_1453571529_1673186148_1673186150_1673186155_26110606_3548410413_3548410415_3664309015_443103_885182683_959615956_959615960_14_0" index="0" allow="private emergency authority army vip passenger hov taxi bus coach delivery truck trailer motorcycle evehicle custom1 custom2" speed="18.05" length="4.88" shape="251.64,367.01 255.55,369.42 255.76,369.61"/>
    </edge>
    <edge id=":cluster_1453571443_1453571529_1673186148_1673186150_1673186155_26110606_3548410413_3548410415_3664309015_443103_885182683_959615956_959615960_15" function="internal">
        <lane id=":cluster_1453571443_1453571529_1673186148_1673186150_1673186155_26110606_3548410413_3548410415_3664309015_443103_885182683_959615956_959615960_15_0" index="0" disallow="tram rail_urban rail rail_electric ship" speed="13.89" length="3.92" shape="251.64,367.01 253.79,368.69 253.27,369.77"/>
    </edge>
    <edge id=":cluster_1453571443_1453571529_1673186148_1673186150_1673186155_26110606_3548410413_3548410415_3664309015_443103_885182683_959615956_959615960_18" function="internal">
        <lane id=":cluster_1453571443_1453571529_1673186148_1673186150_1673186155_26110606_3548410413_3548410415_3664309015_443103_885182683_959615956_959615960_18_0" index="0" speed="18.05" length="11.29" shape="255.76,369.61 258.58,372.18 260.72,375.30 261.98,378.78"/>
    </edge>
    <edge id=":cluster_1453571443_1453571529_1673186148_1673186150_1673186155_26110606_3548410413_3548410415_3664309015_443103_885182683_959615956_959615960_19" function="internal">
        <lane id=":cluster_1453571443_1453571529_1673186148_1673186150_1673186155_26110606_3548410413_3548410415_3664309015_443103_885182683_959615956_959615960_19_0" index="0" speed="13.89" length="10.38" shape="253.27,369.77 253.12,370.08 249.63,371.18 243.31,371.99"/>
    </edge>
    <edge id=":cluster_3548410393_4494632691_0" function="internal">
        <lane id=":cluster_3548410393_4494632691_0_0" index="0" disallow="tram rail_urban rail rail_electric ship" speed="13.89" length="4.73" shape="105.18,361.98 109.89,361.69"/>
        <lane id=":cluster_3548410393_4494632691_0_1" index="1" disallow="tram rail_urban rail rail_electric ship" speed="13.89" length="4.73" shape="105.27,365.18 109.99,364.88"/>
    </edge>

    <edge id="133829890" from="2078932912" to="165566" priority="13" type="highway.motorway" spreadType="center">
        <lane id="133829890_0" index="0" allow="private emergency authority army vip passenger hov taxi bus coach delivery truck trailer motorcycle evehicle custom1 custom2" speed="22.22" length="251.90" shape="197.26,251.54 180.29,0.22"/>
        <lane id="133829890_1" index="1" allow="private emergency authority army vip passenger hov taxi bus coach delivery truck trailer motorcycle evehicle custom1 custom2" speed="22.22" length="251.90" shape="200.45,251.32 183.48,-0.00"/>
        <lane id="133829890_2" index="2" allow="private emergency authority army vip passenger hov taxi bus coach delivery truck trailer motorcycle evehicle custom1 custom2" speed="22.22" length="251.90" shape="203.65,251.11 186.68,-0.22"/>
    </edge>
    <edge id="154847795#0" from="1673186147" to="3664309572" priority="8" type="highway.primary_link" spreadType="center" shape="194.32,359.39 211.83,361.94 232.41,360.60">
        <lane id="154847795#0_0" index="0" disallow="tram rail_urban rail rail_electric ship" speed="13.89" length="35.56" shape="196.64,358.11 211.89,360.33 232.19,359.01"/>
        <lane id="154847795#0_1" index="1" disallow="tram rail_urban rail rail_electric ship" speed="13.89" length="35.56" shape="197.23,361.43 211.76,363.55 232.40,362.21"/>
    </edge>
    <edge id="154847795#1" from="3664309572" to="cluster_1453571443_1453571529_1673186148_1673186150_1673186155_26110606_3548410413_3548410415_3664309015_443103_885182683_959615956_959615960" priority="8" type="highway.primary_link" spreadType="center" shape="232.41,360.60 238.09,360.44 241.74,360.84 248.69,363.70 252.37,365.59">
        <lane id="154847795#1_0" index="0" disallow="tram rail_urban rail rail_electric ship" speed="13.89" length="20.89" shape="232.48,359.00 238.15,358.84 242.14,359.28 249.36,362.25 253.10,364.16"/>
        <lane id="154847795#1_1" index="1" disallow="tram rail_urban rail rail_electric ship" speed="13.89" length="20.89" shape="232.58,362.20 238.02,362.04 241.34,362.41 248.02,365.16 251.64,367.01"/>
    </edge>
    <edge id="175935722#0" from="726921672" to="cluster_3548410393_4494632691" priority="9" type="highway.primary" spreadType="center" shape="0.00,365.44 48.19,365.31 105.23,363.58">
        <lane id="175935722#0_0" index="0" disallow="tram rail_urban rail rail_electric ship" speed="13.89" length="105.25" shape="-0.00,363.84 48.16,363.71 105.18,361.98"/>
        <lane id="175935722#0_1" index="1" disallow="tram rail_urban rail rail_electric ship" speed="13.89" length="105.25" shape="0.00,367.04 48.22,366.91 105.27,365.18"/>
    </edge>
    <edge id="175935722#2" from="cluster_3548410393_4494632691" to="1673186147" priority="9" type="highway.primary" spreadType="center" shape="109.94,363.29 174.43,361.18 181.03,360.39 194.32,359.39">
        <lane id="175935722#2_0" index="0" disallow="tram rail_urban rail rail_electric ship" speed="13.89" length="83.79" shape="109.89,361.69 174.31,359.58 180.88,358.80 193.49,357.85"/>
        <lane id="175935722#2_1" index="1" disallow="tram rail_urban rail rail_electric ship" speed="13.89" length="83.79" shape="109.99,364.88 174.56,362.78 181.19,361.98 193.73,361.04"/>
    </edge>
    <edge id="205620804" from="cluster_1453571443_1453571529_1673186148_1673186150_1673186155_26110606_3548410413_3548410415_3664309015_443103_885182683_959615956_959615960" to="cluster_1453571442_443097" priority="9" type="highway.primary" spreadType="center" shape="258.85,354.17 264.34,353.96 293.91,352.79">
        <lane id="205620804_0" index="0" disallow="tram rail_urban rail rail_electric ship" speed="13.89" length="16.20" shape="266.79,352.27 282.97,351.62"/>
        <lane id="205620804_1" index="1" disallow="tram rail_urban rail rail_electric ship" speed="13.89" length="16.20" shape="266.91,355.46 283.10,354.82"/>
    </edge>
    <edge id="298473146" from="1673186147" to="cluster_1453571443_1453571529_1673186148_1673186150_1673186155_26110606_3548410413_3548410415_3664309015_443103_885182683_959615956_959615960" priority="9" type="highway.primary" spreadType="center" shape="194.32,359.39 210.06,356.25 245.81,354.10 250.10,354.27">
        <lane id="298473146_0" index="0" disallow="tram rail_urban rail rail_electric ship" speed="13.89" length="53.65" shape="196.49,357.32 209.85,354.66 245.80,352.50 250.16,352.67"/>
        <lane id="298473146_1" index="1" disallow="tram rail_urban rail rail_electric ship" speed="13.89" length="53.65" shape="197.06,360.47 210.26,357.84 245.83,355.71 250.04,355.87"/>
    </edge>
    <edge id="328974184" from="3357921960" to="12688349" priority="12" type="highway.motorway_link" spreadType="center">
        <lane id="328974184_0" index="0" allow="private emergency authority army vip passenger hov taxi bus coach delivery truck trailer motorcycle evehicle custom1 custom2" speed="13.89" length="104.24" shape="243.23,216.73 265.74,318.51"/>
        <lane id="328974184_1" index="1" allow="private emergency authority army vip passenger hov taxi bus coach delivery truck trailer motorcycle evehicle custom1 custom2" speed="13.89" length="104.24" shape="240.11,217.42 262.62,319.20"/>
        <lane id="328974184_2" index="2" allow="private emergency authority army vip passenger hov taxi bus coach delivery truck trailer motorcycle evehicle custom1 custom2" speed="13.89" length="104.24" shape="236.98,218.11 259.49,319.89"/>
    </edge>
    <edge id="362046452#1" from="cluster_1453571443_1453571529_1673186148_1673186150_1673186155_26110606_3548410413_3548410415_3664309015_443103_885182683_959615956_959615960" to="cluster_3548410431_4494632692" priority="9" type="highway.primary" spreadType="center" shape="243.45,373.58 234.77,374.32 215.15,375.42 181.93,377.27 110.44,380.54">
        <lane id="362046452#1_0" index="0" disallow="tram rail_urban rail rail_electric ship" speed="13.89" length="136.59" shape="243.59,375.17 234.89,375.92 215.24,377.02 182.01,378.86 107.12,382.30"/>
        <lane id="362046452#1_1" index="1" disallow="tram rail_urban rail rail_electric ship" speed="13.89" length="136.59" shape="243.31,371.99 234.66,372.73 215.06,373.82 181.85,375.67 106.98,379.10"/>
    </edge>
    <edge id="404246166" from="4065164715" to="443096" priority="9" type="highway.primary" spreadType="center">
        <lane id="404246166_0" index="0" disallow="tram rail_urban rail rail_electric ship" speed="13.89" length="85.80" shape="386.37,366.58 300.79,372.84"/>
        <lane id="404246166_1" index="1" disallow="tram rail_urban rail rail_electric ship" speed="13.89" length="85.80" shape="386.13,363.39 300.56,369.64"/>
        <lane id="404246166_2" index="2" disallow="tram rail_urban rail rail_electric ship" speed="13.89" length="85.80" shape="385.90,360.20 300.33,366.45"/>
    </edge>