<?xml version="1.0" encoding="UTF-8"?>

<!-- generated on 2022-06-29 12:22:55 by Eclipse SUMO netconvert Version v1_13_0+1301-b910e52
This data file and the accompanying materials
are made available under the terms of the Eclipse Public License v2.0
which accompanies this distribution, and is available at
http://www.eclipse.org/legal/epl-v20.html
This file may also be made available under the following Secondary
Licenses when the conditions for such availability set forth in the Eclipse
Public License 2.0 are satisfied: GNU General Public License, version 2
or later which is available at
https://www.gnu.org/licenses/old-licenses/gpl-2.0-standalone.html
SPDX-License-Identifier: EPL-2.0 OR GPL-2.0-or-later
<configuration xmlns:xsi="http://www.w3.org/2001/XMLSchema-instance" xsi:noNamespaceSchemaLocation="http://sumo.dlr.de/xsd/netconvertConfiguration.xsd">

    <input>
        <node-files value="input_plain.nod.xml"/>
        <edge-files value="input_plain.edg.xml"/>
    </input>

    <output>
        <write-license value="true"/>
        <output-file value="net.net.xml"/>
        <plain-output-prefix value="plain"/>
    </output>

    <report>
        <xml-validation value="never"/>
    </report>

</configuration>
-->

<net version="1.16" junctionCornerDetail="5" limitTurnSpeed="5.50" xmlns:xsi="http://www.w3.org/2001/XMLSchema-instance" xsi:noNamespaceSchemaLocation="http://sumo.dlr.de/xsd/net_file.xsd">

    <location netOffset="100.00,0.00" convBoundary="0.00,0.00,400.00,0.00" origBoundary="-10000000000.00,-10000000000.00,10000000000.00,10000000000.00" projParameter="!"/>

    <edge id=":J0_0" function="internal">
        <lane id=":J0_0_0" index="0" speed="13.89" length="3.52" shape="101.50,0.00 100.55,0.25 100.00,0.80 99.45,1.35 98.50,1.60"/>
    </edge>
    <edge id=":J0_1" function="internal">
        <lane id=":J0_1_0" index="0" speed="13.89" length="3.52" width="4.00" shape="98.50,-1.60 99.45,-1.35 100.00,-0.80 100.55,-0.25 101.50,0.00"/>
    </edge>
    <edge id=":J1_0" function="internal" bidi=":J1_1">
        <lane id=":J1_0_0" index="0" speed="13.89" length="0.10" width="4.00" shape="200.00,0.00 200.00,0.00"/>
    </edge>
    <edge id=":J1_1" function="internal" bidi=":J1_0">
        <lane id=":J1_1_0" index="0" speed="13.89" length="0.10" width="4.00" shape="200.00,0.00 200.00,0.00"/>
    </edge>
    <edge id=":J2_0" function="internal">
        <lane id=":J2_0_0" index="0" speed="3.65" length="4.67" shape="0.00,1.60 -1.20,0.80 -1.60,0.00 -1.20,-0.80 0.00,-1.60"/>
    </edge>
    <edge id=":J3_0" function="internal">
        <lane id=":J3_0_0" index="0" speed="13.89" length="3.52" width="4.00" shape="301.50,1.60 300.55,1.35 300.00,0.80 299.45,0.25 298.50,0.00"/>
    </edge>
    <edge id=":J3_1" function="internal">
        <lane id=":J3_1_0" index="0" speed="13.89" length="3.52" shape="298.50,0.00 299.45,-0.25 300.00,-0.80 300.55,-1.35 301.50,-1.60"/>
    </edge>
    <edge id=":J4_0" function="internal">
        <lane id=":J4_0_0" index="0" speed="3.65" length="4.67" shape="400.00,-1.60 401.20,-0.80 401.60,0.00 401.20,0.80 400.00,1.60"/>
    </edge>

    <edge id="-E1" from="J0" to="J2" priority="-1">
        <lane id="-E1_0" index="0" speed="13.89" length="98.50" shape="98.50,1.60 0.00,1.60"/>
    </edge>
    <edge id="-E2" from="J1" to="J0" priority="-1" spreadType="center" bidi="E2">
        <lane id="-E2_0" index="0" speed="13.89" length="98.50" width="4.00" shape="200.00,0.00 101.50,0.00"/>
    </edge>
    <edge id="-E3" from="J3" to="J1" priority="-1" spreadType="center" bidi="E3">
        <lane id="-E3_0" index="0" speed="13.89" length="98.50" width="4.00" shape="298.50,0.00 200.00,0.00"/>
    </edge>
    <edge id="-E4" from="J4" to="J3" priority="-1">
        <lane id="-E4_0" index="0" speed="13.89" length="98.50" shape="400.00,1.60 301.50,1.60"/>
    </edge>
    <edge id="E1" from="J2" to="J0" priority="-1">
        <lane id="E1_0" index="0" speed="13.89" length="98.50" shape="0.00,-1.60 98.50,-1.60"/>
    </edge>
    <edge id="E2" from="J0" to="J1" priority="-1" spreadType="center" bidi="-E2">
        <lane id="E2_0" index="0" speed="13.89" length="98.50" width="4.00" shape="101.50,0.00 200.00,0.00"/>
    </edge>
    <edge id="E3" from="J1" to="J3" priority="-1" spreadType="center" bidi="-E3">
        <lane id="E3_0" index="0" speed="13.89" length="98.50" width="4.00" shape="200.00,0.00 298.50,0.00"/>
    </edge>
    <edge id="E4" from="J3" to="J4" priority="-1">
        <lane id="E4_0" index="0" speed="13.89" length="98.50" shape="301.50,-1.60 400.00,-1.60"/>
    </edge>

    <junction id="J0" type="priority" x="100.00" y="0.00" incLanes="-E2_0 E1_0" intLanes=":J0_0_0 :J0_1_0" shape="101.50,2.00 101.50,-2.00 100.36,-2.31 99.64,-2.89 99.17,-3.11 98.50,-3.20 98.50,3.20 99.64,2.89 100.36,2.31 100.83,2.09">
        <request index="0" response="00" foes="00" cont="0"/>
        <request index="1" response="00" foes="00" cont="0"/>
    </junction>
    <junction id="J1" type="priority" x="200.00" y="0.00" incLanes="-E3_0 E2_0" intLanes=":J1_0_0 :J1_1_0" shape="200.00,2.00 200.00,-2.00 200.00,2.00">
        <request index="0" response="00" foes="00" cont="0"/>
        <request index="1" response="00" foes="00" cont="0"/>
    </junction>
    <junction id="J2" type="priority" x="0.00" y="0.00" incLanes="-E1_0" intLanes=":J2_0_0" shape="0.00,0.00 0.00,3.20 0.00,0.00">
        <request index="0" response="0" foes="0" cont="0"/>
    </junction>
    <junction id="J3" type="priority" x="300.00" y="0.00" incLanes="-E4_0 E3_0" intLanes=":J3_0_0 :J3_1_0" shape="301.50,3.20 301.50,-3.20 300.36,-2.89 299.64,-2.31 299.17,-2.09 298.50,-2.00 298.50,2.00 299.64,2.31 300.36,2.89 300.83,3.11">
        <request index="0" response="00" foes="00" cont="0"/>
        <request index="1" response="00" foes="00" cont="0"/>
    </junction>
    <junction id="J4" type="priority" x="400.00" y="0.00" incLanes="E4_0" intLanes=":J4_0_0" shape="400.00,0.00 400.00,-3.20 400.00,0.00">
        <request index="0" response="0" foes="0" cont="0"/>
    </junction>

    <connection from="-E1" to="E1" fromLane="0" toLane="0" via=":J2_0_0" dir="t" state="M"/>
    <connection from="-E2" to="-E1" fromLane="0" toLane="0" via=":J0_0_0" dir="s" state="M"/>
    <connection from="-E3" to="-E2" fromLane="0" toLane="0" via=":J1_0_0" dir="s" state="M"/>
    <connection from="-E4" to="-E3" fromLane="0" toLane="0" via=":J3_0_0" dir="s" state="m"/>
    <connection from="E1" to="E2" fromLane="0" toLane="0" via=":J0_1_0" dir="s" state="m"/>
    <connection from="E2" to="E3" fromLane="0" toLane="0" via=":J1_1_0" dir="s" state="M"/>
    <connection from="E3" to="E4" fromLane="0" toLane="0" via=":J3_1_0" dir="s" state="M"/>
    <connection from="E4" to="-E4" fromLane="0" toLane="0" via=":J4_0_0" dir="t" state="M"/>

    <connection from=":J0_0" to="-E1" fromLane="0" toLane="0" dir="s" state="M"/>
    <connection from=":J0_1" to="E2" fromLane="0" toLane="0" dir="s" state="M"/>
    <connection from=":J1_0" to="-E2" fromLane="0" toLane="0" dir="s" state="M"/>
    <connection from=":J1_1" to="E3" fromLane="0" toLane="0" dir="s" state="M"/>
    <connection from=":J2_0" to="E1" fromLane="0" toLane="0" dir="t" state="M"/>
    <connection from=":J3_0" to="-E3" fromLane="0" toLane="0" dir="s" state="M"/>
    <connection from=":J3_1" to="E4" fromLane="0" toLane="0" dir="s" state="M"/>
    <connection from=":J4_0" to="-E4" fromLane="0" toLane="0" dir="t" state="M"/>

</net>
