<?xml version="1.0" encoding="UTF-8"?>

<!-- generated on 2023-04-17 15:31:03 by Eclipse SUMO netedit Version v1_16_0+2120-e9fed2373cf
-->

<additional xmlns:xsi="http://www.w3.org/2001/XMLSchema-instance" xsi:noNamespaceSchemaLocation="http://sumo.dlr.de/xsd/additional_file.xsd">
    <!-- StoppingPlaces -->
    <busStop id="bs_0" lane="center0_1" startPos="29.00" endPos="39.00"/>
</additional>
