<?xml version="1.0" encoding="UTF-8"?>

<!-- generated on Mon Feb 17 15:31:12 2020 by Eclipse SUMO netconvert Version v1_5_0+0130-ceb0a01
This data file and the accompanying materials
are made available under the terms of the Eclipse Public License v2.0
which accompanies this distribution, and is available at
http://www.eclipse.org/legal/epl-v20.html
SPDX-License-Identifier: EPL-2.0
<configuration xmlns:xsi="http://www.w3.org/2001/XMLSchema-instance" xsi:noNamespaceSchemaLocation="http://sumo.dlr.de/xsd/netconvertConfiguration.xsd">

    <input>
        <node-files value="input_plain.nod.xml"/>
        <edge-files value="input_plain.edg.xml"/>
    </input>

    <output>
        <write-license value="true"/>
    </output>

    <report>
        <xml-validation value="never"/>
        <aggregate-warnings value="5"/>
    </report>

</configuration>
-->

<net version="1.6" junctionCornerDetail="5" limitTurnSpeed="5.50" xmlns:xsi="http://www.w3.org/2001/XMLSchema-instance" xsi:noNamespaceSchemaLocation="http://sumo.dlr.de/xsd/net_file.xsd">

    <location netOffset="0.00,0.00" convBoundary="0.00,0.00,100.00,0.00" origBoundary="-10000000000.00,-10000000000.00,10000000000.00,10000000000.00" projParameter="!"/>

    <edge id="gneE0" from="gneJ0" to="gneJ1" priority="1" spreadType="center">
        <lane id="gneE0_0" index="0" allow="passenger" speed="13.89" length="100.00" shape="0.00,-2.10 100.00,-2.10"/>
        <lane id="gneE0_1" index="1" allow="bicycle" speed="13.89" length="100.00" shape="0.00,1.10 100.00,1.10"/>
        <lane id="gneE0_2" index="2" allow="pedestrian" speed="13.89" length="100.00" width="1.00" shape="0.00,3.20 100.00,3.20"/>
    </edge>
    <edge id="gneE1" from="gneJ0" to="gneJ1" priority="1">
        <lane id="gneE1_0" index="0" allow="rail" speed="13.89" length="97.50" endOffset="5.00" shape="0.00,-4.80 95.00,-4.80"/>
        <lane id="gneE1_1" index="1" allow="rail" speed="13.89" length="97.50" shape="0.00,-1.60 100.00,-1.60"/>
    </edge>

    <junction id="gneJ0" type="dead_end" x="0.00" y="0.00" incLanes="" intLanes="" shape="0.00,3.70 0.00,0.00 0.00,-6.40"/>
    <junction id="gneJ1" type="dead_end" x="100.00" y="0.00" incLanes="gneE0_0 gneE0_1 gneE0_2 gneE1_0 gneE1_1" intLanes="" shape="100.00,-3.70 100.00,-6.40 100.00,0.00"/>

</net>
