<?xml version="1.0" encoding="UTF-8"?>

<!-- generated on 2022-02-23 12:16:04 by Eclipse SUMO netedit Version v1_12_0+0797-1fd7ba6b6a7
-->

<routes xmlns:xsi="http://www.w3.org/2001/XMLSchema-instance" xsi:noNamespaceSchemaLocation="http://sumo.dlr.de/xsd/routes_file.xsd">
    <trip id="trip" depart="0.00" from="gneE0" to="gneE1">
        <stop containerStop="containerStopA" duration="70.00" until="12.00" extension="10.00" triggered="person" parking="1" expected="perA perB" permitted="A B" speed="10.00" actType="singing"/>
        <stop containerStop="containerStopB" duration="60.00" until="20.00" extension="20.00" triggered="container" parking="1" expected="conA conB" permitted="C D" speed="22.50" actType="singing"/>
    </trip>
</routes>
