<?xml version="1.0" encoding="UTF-8"?>

<!-- generated on 2023-07-17 10:43:42 by Eclipse SUMO netedit Version v1_18_0+0332-272a1e44cea
-->

<routes xmlns:xsi="http://www.w3.org/2001/XMLSchema-instance" xsi:noNamespaceSchemaLocation="http://sumo.dlr.de/xsd/routes_file.xsd">
    <!-- Routes -->
    <route id="route_4" edges="Edge0 Edge1 Edge2 EdgeBike0 EdgeCenter0" color="yellow"/>
    <route id="route_5" edges="Edge0 Edge1" color="yellow"/>
    <route id="route_6" edges="Edge0" color="yellow"/>
</routes>
