<?xml version="1.0" encoding="UTF-8"?>

<!-- generated on Fri Oct  6 17:16:14 2017 by SUMO netconvert Version dev-SVN-r26359
<?xml version="1.0" encoding="UTF-8"?>

<configuration xmlns:xsi="http://www.w3.org/2001/XMLSchema-instance" xsi:noNamespaceSchemaLocation="http://sumo.dlr.de/xsd/netconvertConfiguration.xsd">

    <input>
        <opendrive-files value="opendrive.xodr"/>
    </input>

    <tls_building>
        <tls.left-green.time value="0"/>
    </tls_building>

    <processing>
        <opendrive.ignore-widths value="true"/>
        <opendrive.curve-resolution value="16"/>
        <no-internal-links value="true"/>
        <rectangular-lane-cut value="true"/>
    </processing>

    <report>
        <verbose value="true"/>
        <xml-validation value="never"/>
    </report>

</configuration>
-->

<net version="0.27" rectangularLaneCut="true" xmlns:xsi="http://www.w3.org/2001/XMLSchema-instance" xsi:noNamespaceSchemaLocation="http://sumo.dlr.de/xsd/net_file.xsd">

    <location netOffset="200.00,86.42" convBoundary="0.00,0.00,400.00,172.72" origBoundary="-200.00,-86.42,200.00,86.31" projParameter="!"/>

    <type id="OffRamp" priority="1" speed="22.22" allow="private emergency authority army vip passenger hov taxi bus coach delivery truck trailer motorcycle evehicle custom1 custom2" width="3.65"/>
    <type id="OnRamp" priority="1" speed="22.22" allow="private emergency authority army vip passenger hov taxi bus coach delivery truck trailer motorcycle evehicle custom1 custom2" width="3.65"/>
    <type id="bidirectional" priority="1" speed="1.39" disallow="tram rail_urban rail rail_electric pedestrian ship" width="3.65"/>
    <type id="border" priority="0" speed="1.39" disallow="all" discard="1" width="0.10"/>
    <type id="driving" priority="1" speed="13.89" disallow="tram rail_urban rail rail_electric pedestrian ship" width="3.65"/>
    <type id="entry" priority="1" speed="22.22" disallow="tram rail_urban rail rail_electric pedestrian ship" width="3.65"/>
    <type id="exit" priority="1" speed="22.22" disallow="tram rail_urban rail rail_electric pedestrian ship" width="3.65"/>
    <type id="median" priority="0" speed="1.39" disallow="all" discard="1" width="0.10"/>
    <type id="mwyEntry" priority="1" speed="22.22" allow="private emergency authority army vip passenger hov taxi bus coach delivery truck trailer motorcycle evehicle custom1 custom2" width="3.65"/>
    <type id="mwyExit" priority="1" speed="22.22" allow="private emergency authority army vip passenger hov taxi bus coach delivery truck trailer motorcycle evehicle custom1 custom2" width="3.65"/>
    <type id="none" priority="0" speed="1.39" disallow="all" discard="1" width="1.00"/>
    <type id="parking" priority="1" speed="1.39" disallow="tram rail_urban rail rail_electric pedestrian ship" width="2.50"/>
    <type id="rail" priority="3" speed="33.33" allow="rail_urban rail rail_electric" width="3.65"/>
    <type id="restricted" priority="0" speed="13.89" disallow="all" width="3.65"/>
    <type id="roadWorks" priority="0" speed="1.39" allow="authority" width="3.65"/>
    <type id="shoulder" priority="0" speed="1.39" disallow="all" discard="1" width="1.00"/>
    <type id="special1" priority="1" speed="22.22" allow="custom1" discard="1" width="3.65"/>
    <type id="special2" priority="1" speed="22.22" allow="custom2" discard="1" width="3.65"/>
    <type id="special3" priority="1" speed="22.22" allow="custom1 custom2" discard="1" width="3.65"/>
    <type id="stop" priority="1" speed="13.89" disallow="tram rail_urban rail rail_electric pedestrian ship" width="3.65"/>
    <type id="tram" priority="2" speed="13.89" allow="tram" width="3.65"/>

    <edge id="-501.0.00" from="2" to="508.501" priority="1" type="driving" shape="200.00,86.42 209.90,96.32">
        <lane id="-501.0.00_0" index="0" disallow="tram rail_urban rail rail_electric pedestrian ship" speed="13.89" length="14.00" width="3.65" shape="205.00,88.77 211.23,94.99"/>
    </edge>
    <edge id="-502.0.00" from="2" to="509.502" priority="1" type="driving" shape="200.00,86.42 190.10,96.32">
        <lane id="-502.0.00_0" index="0" disallow="tram rail_urban rail rail_electric pedestrian ship" speed="13.89" length="14.00" width="3.65" shape="197.65,91.42 191.43,97.64"/>
    </edge>
    <edge id="-508.0.00" from="516.508" to="508.501" priority="1" type="driving" shape="209.90,76.52 259.34,27.07 267.48,19.31 280.53,10.09 295.14,3.65 310.75,0.24 326.72,0.00 342.42,2.94 357.22,8.93 370.54,17.75 381.84,29.04 390.68,42.35 396.69,57.15 399.64,72.85 399.74,74.09 400.00,85.34 400.00,86.42 400.00,87.50 399.74,98.74 397.03,114.48 391.25,129.37 382.62,142.82 371.50,154.28 358.32,163.31 343.61,169.53 327.96,172.72 311.99,172.72 296.33,169.56 281.61,163.34 268.43,154.33 267.48,153.52 259.34,145.76 209.90,96.32">
        <lane id="-508.0.00_0" index="0" disallow="tram rail_urban rail rail_electric pedestrian ship" speed="13.89" length="540.90" width="3.65" shape="208.57,75.19 258.03,25.73 266.28,17.86 279.60,8.45 294.56,1.86 310.53,-1.63 326.88,-1.88 342.95,1.13 358.10,7.27 371.73,16.29 383.30,27.85 392.34,41.47 398.50,56.62 401.50,72.60 401.61,74.00 401.87,85.30 401.88,86.42 401.88,87.52 401.61,98.92 398.85,114.99 392.93,130.23 384.10,143.99 372.72,155.72 359.23,164.96 344.17,171.33 328.15,174.59 311.80,174.60 295.77,171.36 280.71,165.00 267.28,155.82 266.22,154.91 258.03,147.10 208.57,97.64"/>
    </edge>
    <edge id="-509.0.00" from="514.509" to="509.502" priority="1" type="driving" shape="190.10,76.52 140.66,27.07 132.52,19.31 119.47,10.09 104.86,3.65 89.25,0.24 73.28,0.00 57.58,2.94 42.78,8.93 29.46,17.75 18.16,29.04 9.32,42.35 3.31,57.15 0.36,72.85 0.26,74.09 0.00,85.34 0.00,86.42 0.00,87.50 0.26,98.74 2.97,114.48 8.75,129.37 17.38,142.82 28.50,154.28 41.68,163.31 56.39,169.53 72.04,172.72 88.01,172.72 103.67,169.56 118.39,163.34 131.57,154.33 132.52,153.52 140.66,145.76 190.10,96.32">
        <lane id="-509.0.00_0" index="0" disallow="tram rail_urban rail rail_electric pedestrian ship" speed="13.89" length="540.90" width="3.65" shape="188.77,77.84 139.35,28.41 131.33,20.76 118.55,11.73 104.27,5.44 89.04,2.11 73.44,1.88 58.11,4.75 43.65,10.60 30.65,19.21 19.62,30.24 10.99,43.23 5.12,57.68 2.22,73.10 2.14,74.19 1.87,85.38 1.88,86.42 1.88,87.47 2.13,98.56 4.79,113.98 10.43,128.52 18.85,141.65 29.71,152.84 42.58,161.65 56.95,167.73 72.23,170.84 87.83,170.85 103.11,167.76 117.48,161.69 130.43,152.84 131.26,152.13 139.35,144.42 188.77,94.99"/>
    </edge>
    <edge id="-514.0.00" from="2" to="514.509" priority="1" type="driving" shape="200.00,86.42 190.10,76.52">
        <lane id="-514.0.00_0" index="0" disallow="tram rail_urban rail rail_electric pedestrian ship" speed="13.89" length="14.00" width="3.65" shape="195.00,84.06 188.77,77.84"/>
    </edge>
    <edge id="-516.0.00" from="2" to="516.508" priority="1" type="driving" shape="200.00,86.42 209.90,76.52">
        <lane id="-516.0.00_0" index="0" disallow="tram rail_urban rail rail_electric pedestrian ship" speed="13.89" length="14.00" width="3.65" shape="202.35,81.41 208.57,75.19"/>
    </edge>
    <edge id="501.0.00" from="508.501" to="2" priority="2" type="driving" shape="209.90,96.32 200.00,86.42">
        <lane id="501.0.00_0" index="0" disallow="tram rail_urban rail rail_electric pedestrian ship" speed="13.89" length="14.00" width="3.65" shape="208.57,97.64 202.35,91.42"/>
    </edge>
    <edge id="502.0.00" from="509.502" to="2" priority="0" type="driving" shape="190.10,96.32 200.00,86.42">
        <lane id="502.0.00_0" index="0" disallow="tram rail_urban rail rail_electric pedestrian ship" speed="13.89" length="14.00" width="3.65" shape="188.77,94.99 195.00,88.77"/>
    </edge>
    <edge id="508.0.00" from="508.501" to="516.508" priority="1" type="driving" shape="209.90,96.32 259.34,145.76 267.48,153.52 268.43,154.33 281.61,163.34 296.33,169.56 311.99,172.72 327.96,172.72 343.61,169.53 358.32,163.31 371.50,154.28 382.62,142.82 391.25,129.37 397.03,114.48 399.74,98.74 400.00,87.50 400.00,86.42 400.00,85.34 399.74,74.09 399.64,72.85 396.69,57.15 390.68,42.35 381.84,29.04 370.54,17.75 357.22,8.93 342.42,2.94 326.72,0.00 310.75,0.24 295.14,3.65 280.53,10.09 267.48,19.31 259.34,27.07 209.90,76.52">
        <lane id="508.0.00_0" index="0" disallow="tram rail_urban rail rail_electric pedestrian ship" speed="13.89" length="540.90" width="3.65" shape="211.23,94.99 260.65,144.42 268.77,152.16 269.57,152.84 282.52,161.69 296.89,167.76 312.17,170.85 327.77,170.84 343.05,167.73 357.42,161.65 370.29,152.84 381.15,141.65 389.57,128.52 395.21,113.98 397.87,98.56 398.13,87.46 398.13,86.42 398.13,85.36 397.86,74.15 397.78,73.10 394.88,57.68 389.01,43.23 380.38,30.24 369.35,19.21 356.35,10.60 341.89,4.75 326.56,1.88 310.96,2.11 295.73,5.44 281.45,11.73 268.67,20.76 260.65,28.41 211.23,77.84"/>
    </edge>
    <edge id="509.0.00" from="509.502" to="514.509" priority="1" type="driving" shape="190.10,96.32 140.66,145.76 132.52,153.52 131.57,154.33 118.39,163.34 103.67,169.56 88.01,172.72 72.04,172.72 56.39,169.53 41.68,163.31 28.50,154.28 17.38,142.82 8.75,129.37 2.97,114.48 0.26,98.74 0.00,87.50 0.00,86.42 0.00,85.34 0.26,74.09 0.36,72.85 3.31,57.15 9.32,42.35 18.16,29.04 29.46,17.75 42.78,8.93 57.58,2.94 73.28,0.00 89.25,0.24 104.86,3.65 119.47,10.09 132.52,19.31 140.66,27.07 190.10,76.52">
        <lane id="509.0.00_0" index="0" disallow="tram rail_urban rail rail_electric pedestrian ship" speed="13.89" length="540.90" width="3.65" shape="191.43,97.64 141.97,147.10 133.81,154.89 132.72,155.82 119.29,165.00 104.23,171.36 88.20,174.60 71.85,174.59 55.83,171.33 40.77,164.96 27.28,155.72 15.90,143.99 7.07,130.23 1.15,114.99 -1.61,98.92 -1.87,87.54 -1.87,86.42 -1.88,85.31 -1.61,74.04 -1.50,72.60 1.50,56.62 7.66,41.47 16.70,27.85 28.27,16.29 41.90,7.27 57.05,1.13 73.12,-1.88 89.47,-1.63 105.44,1.86 120.40,8.45 133.72,17.86 141.97,25.73 191.43,75.19"/>
    </edge>
    <edge id="514.0.00" from="514.509" to="2" priority="2" type="driving" shape="190.10,76.52 200.00,86.42">
        <lane id="514.0.00_0" index="0" disallow="tram rail_urban rail rail_electric pedestrian ship" speed="13.89" length="14.00" width="3.65" shape="191.43,75.19 197.65,81.41"/>
    </edge>
    <edge id="516.0.00" from="516.508" to="2" priority="0" type="driving" shape="209.90,76.52 200.00,86.42">
        <lane id="516.0.00_0" index="0" disallow="tram rail_urban rail rail_electric pedestrian ship" speed="13.89" length="14.00" width="3.65" shape="211.23,77.84 205.00,84.06"/>
    </edge>

    <tlLogic id="2" type="static" programID="0" offset="0">
        <phase duration="42" state="GGgrrrGGgrrr"/>
        <phase duration="3" state="yyyrrryyyrrr"/>
        <phase duration="42" state="rrrGGgrrrGGg"/>
        <phase duration="3" state="rrryyyrrryyy"/>
        <param key="connection:501.0.00" value="_Sg32"/>
        <param key="connection:502.0.00" value="_Sg22"/>
        <param key="connection:514.0.00" value="_Sg42"/>
        <param key="connection:516.0.00" value="_Sg12"/>
    </tlLogic>

    <junction id="2" type="traffic_light" x="200.00" y="86.42" incLanes="501.0.00_0 516.0.00_0 514.0.00_0 502.0.00_0" intLanes="" shape="201.06,92.71 206.29,87.48 206.29,85.35 201.06,80.12 198.94,80.12 193.71,85.35 193.71,87.48 198.94,92.71">
        <request index="0" response="000000000000" foes="000100010000"/>
        <request index="1" response="000000000000" foes="111100110000"/>
        <request index="2" response="000011000000" foes="110011110000"/>
        <request index="3" response="000010000000" foes="100010000000"/>
        <request index="4" response="000110000111" foes="100110000111"/>
        <request index="5" response="011110000110" foes="011110000110"/>
        <request index="6" response="000000000000" foes="010000000100"/>
        <request index="7" response="000000000000" foes="110000111100"/>
        <request index="8" response="000000000011" foes="110000110011"/>
        <request index="9" response="000000000010" foes="000000100010"/>
        <request index="10" response="000111000110" foes="000111100110"/>
        <request index="11" response="000110011110" foes="000110011110"/>
    </junction>
    <junction id="508.501" type="priority" x="209.90" y="96.32" incLanes="-508.0.00_0 -501.0.00_0" intLanes="" shape="207.28,98.93 212.52,93.70 207.28,98.93">
        <request index="0" response="00" foes="00"/>
        <request index="1" response="00" foes="00"/>
    </junction>
    <junction id="509.502" type="priority" x="190.10" y="96.32" incLanes="-502.0.00_0 -509.0.00_0" intLanes="" shape="192.72,98.93 187.48,93.70 192.72,98.93">
        <request index="0" response="00" foes="00"/>
        <request index="1" response="00" foes="00"/>
    </junction>
    <junction id="514.509" type="priority" x="190.10" y="76.52" incLanes="-514.0.00_0 509.0.00_0" intLanes="" shape="187.48,79.13 192.72,73.90 187.48,79.13">
        <request index="0" response="00" foes="00"/>
        <request index="1" response="00" foes="00"/>
    </junction>
    <junction id="516.508" type="priority" x="209.90" y="76.52" incLanes="508.0.00_0 -516.0.00_0" intLanes="" shape="212.52,79.13 207.28,73.90 212.52,79.13">
        <request index="0" response="00" foes="00"/>
        <request index="1" response="00" foes="00"/>
    </junction>

    <connection from="-501.0.00" to="508.0.00" fromLane="0" toLane="0" dir="s" state="M"/>
    <connection from="-502.0.00" to="509.0.00" fromLane="0" toLane="0" dir="s" state="M"/>
    <connection from="-508.0.00" to="501.0.00" fromLane="0" toLane="0" dir="s" state="M"/>
    <connection from="-509.0.00" to="502.0.00" fromLane="0" toLane="0" dir="s" state="M"/>
    <connection from="-514.0.00" to="-509.0.00" fromLane="0" toLane="0" dir="s" state="M"/>
    <connection from="-516.0.00" to="-508.0.00" fromLane="0" toLane="0" dir="s" state="M"/>
    <connection from="501.0.00" to="-502.0.00" fromLane="0" toLane="0" tl="2" linkIndex="0" dir="r" state="o"/>
    <connection from="501.0.00" to="-514.0.00" fromLane="0" toLane="0" tl="2" linkIndex="1" dir="s" state="o"/>
    <connection from="501.0.00" to="-516.0.00" fromLane="0" toLane="0" tl="2" linkIndex="2" dir="l" state="o"/>
    <connection from="502.0.00" to="-514.0.00" fromLane="0" toLane="0" tl="2" linkIndex="9" dir="r" state="o"/>
    <connection from="502.0.00" to="-516.0.00" fromLane="0" toLane="0" tl="2" linkIndex="10" dir="s" state="o"/>
    <connection from="502.0.00" to="-501.0.00" fromLane="0" toLane="0" tl="2" linkIndex="11" dir="l" state="o"/>
    <connection from="508.0.00" to="516.0.00" fromLane="0" toLane="0" dir="s" state="M"/>
    <connection from="509.0.00" to="514.0.00" fromLane="0" toLane="0" dir="s" state="M"/>
    <connection from="514.0.00" to="-516.0.00" fromLane="0" toLane="0" tl="2" linkIndex="6" dir="r" state="o"/>
    <connection from="514.0.00" to="-501.0.00" fromLane="0" toLane="0" tl="2" linkIndex="7" dir="s" state="o"/>
    <connection from="514.0.00" to="-502.0.00" fromLane="0" toLane="0" tl="2" linkIndex="8" dir="l" state="o"/>
    <connection from="516.0.00" to="-501.0.00" fromLane="0" toLane="0" tl="2" linkIndex="3" dir="r" state="o"/>
    <connection from="516.0.00" to="-502.0.00" fromLane="0" toLane="0" tl="2" linkIndex="4" dir="s" state="o"/>
    <connection from="516.0.00" to="-514.0.00" fromLane="0" toLane="0" tl="2" linkIndex="5" dir="l" state="o"/>

</net>
