<?xml version="1.0" encoding="UTF-8"?>

<!-- generated on 2022-07-07 11:20:41.984414 by generateRailSignalConstraints.py v1_13_0+1343-240e5d48340
<configuration>
    <additional-file value="input_additional.add.xml"/>
    <comment.all value="True"/>
    <net-file value="net.net.xml"/>
    <output-file value="out.add.xml"/>
    <route-file value="input_routes.rou.xml"/>
</configuration>
-->

<additional xmlns:xsi="http://www.w3.org/2001/XMLSchema-instance" xsi:noNamespaceSchemaLocation="http://sumo.dlr.de/xsd/additional_file.xsd">
    <railSignalConstraints id="A">
        <predecessor tripId="t0" tl="D" foes="trip1"/>   <!-- line=S4 foeID=t1 switch=c busStop=stop_c arrival=00:01:40 foeArrival=00:00:50  -->
    </railSignalConstraints>
</additional>
