<?xml version="1.0" encoding="UTF-8"?>

<!-- generated on 2023-06-29 15:03:59.893652 by routeSampler.py v1_17_0+1318-85f891f765f
<configuration>
    <route-files value="input_routes.rou.xml"/>
    <turn-files value="input_turns.xml"/>
    <write-flows value="number"/>
    <write-route-ids value="True"/>
</configuration>
-->

<routes xmlns:xsi="http://www.w3.org/2001/XMLSchema-instance" xsi:noNamespaceSchemaLocation="http://sumo.dlr.de/xsd/routes_file.xsd">
<!-- begin="0.0" end="200.0" -->
    <route id="0_2" edges="-3 -3.180.00 5"/> <!-- 10 (route_0) -->

    <flow id="0_2" begin="3.12" end="200.00" number="10" route="0_2"/>
<!-- begin="200.0" end="400.0" -->
    <route id="200_0" edges="-3 -3.180.00 11"/> <!-- 8 (route_2) -->

    <flow id="200_0" begin="201.41" end="400.00" number="8" route="200_0"/>
</routes>
