<?xml version="1.0" encoding="UTF-8"?>

<!-- generated on 10/06/14 14:08:42 by SUMO Version dev-SVN-r17143
<?xml version="1.0" encoding="UTF-8"?>

<configuration xmlns:xsi="http://www.w3.org/2001/XMLSchema-instance" xsi:noNamespaceSchemaLocation="http://sumo.dlr.de/xsd/sumoConfiguration.xsd">

    <input>
        <net-file value="three_split.net.xml"/>
        <additional-files value="input_routes.rou.xml"/>
    </input>

    <output>
        <tripinfo-output value="tripinfos.xml"/>
        <bt-output value="bt.xml"/>
    </output>

    <time>
        <begin value="0"/>
    </time>

    <report>
        <xml-validation value="never"/>
        <no-duration-log value="true"/>
        <no-step-log value="true"/>
    </report>

    <communication>
        <device.btreceiver.explicit value="right"/>
        <device.btreceiver.range value="50"/>
        <device.btsender.explicit value="left"/>
    </communication>

</configuration>
-->

<bt-output>
    <bt id="right">
        <seen id="left" tBeg="3.00" observerPosBeg="44.34,498.35" observerSpeedBeg="13.89" observerLaneIDBeg="beg_0" observerLanePosBeg="44.77" seenPosBeg="3.07,498.35" seenSpeedBeg="5.00" seenLaneIDBeg="beg_0" seenLanePosBeg="3.10" tEnd="3.99" observerPosEnd="57.98,498.35" observerSpeedEnd="13.89" observerLaneIDEnd="beg_0" observerLanePosEnd="58.66" seenPosEnd="7.98,498.35" seenSpeedEnd="5.00" seenLaneIDEnd="beg_0" seenLanePosEnd="8.10"/>
    </bt>
</bt-output>
