<trips>
	<trip depart="0" from="end" to="beg"/>
</trips>
