<?xml version="1.0" encoding="UTF-8"?>

<!-- generated on 2022-02-07 10:15:29 by Eclipse SUMO netedit Version v1_12_0+0293-22171d7ea39
-->

<additional xmlns:xsi="http://www.w3.org/2001/XMLSchema-instance" xsi:noNamespaceSchemaLocation="http://sumo.dlr.de/xsd/additional_file.xsd">
    <instantInductionLoop id="correctID" lane="gneE1_0" pos="33.00" file="e1i_0.xml"/>
    <instantInductionLoop id="e1i_1" lane="gneE1_0" pos="12.00" file="e1i_1.xml"/>
</additional>
