<?xml version="1.0" encoding="UTF-8"?>

<!-- generated on 06.05.2018 17:50:37 by Eclipse SUMO netedit Version 45435feb69
<configuration xmlns:xsi="http://www.w3.org/2001/XMLSchema-instance" xsi:noNamespaceSchemaLocation="http://sumo.dlr.de/xsd/netconvertConfiguration.xsd">

    <input>
        <sumo-additionals-file value="C:/Users/SUMO-Test/.texttest/tmp/netedit.gui.1_from_06May095809.844/netedit.gui/bugs/processing/ticket3071\input_additionals.add.xml"/>
        <sumo-net-file value="C:/Users/SUMO-Test/.texttest/tmp/netedit.gui.1_from_06May095809.844/netedit.gui/bugs/processing/ticket3071\input_net.net.xml"/>
    </input>

    <output>
        <additionals-output value="C:/Users/SUMO-Test/.texttest/tmp/netedit.gui.1_from_06May095809.844/netedit.gui/bugs/processing/ticket3071\additionals.xml"/>
        <shapes-output value="C:/Users/SUMO-Test/.texttest/tmp/netedit.gui.1_from_06May095809.844/netedit.gui/bugs/processing/ticket3071\shapes.xml"/>
        <output-file value="C:/Users/SUMO-Test/.texttest/tmp/netedit.gui.1_from_06May095809.844/netedit.gui/bugs/processing/ticket3071\net.net.xml"/>
    </output>

    <processing>
        <no-internal-links value="false"/>
        <no-turnarounds value="true"/>
        <offset.disable-normalization value="true"/>
        <lefthand value="false"/>
        <junctions.corner-detail value="0"/>
        <rectangular-lane-cut value="false"/>
        <walkingareas value="false"/>
    </processing>

    <visualisation>
        <gui-settings-file value="C:/Users/SUMO-Test/.texttest/tmp/netedit.gui.1_from_06May095809.844/netedit.gui/bugs/processing/ticket3071\gui-settings.xml"/>
        <window-size value="700,500"/>
        <window-pos value="50,50"/>
        <gui-testing value="true"/>
        <gui-testing-debug value="true"/>
    </visualisation>

    <report>
        <no-warnings value="true"/>
        <error-log value="C:/Users/SUMO-Test/.texttest/tmp/netedit.gui.1_from_06May095809.844/netedit.gui/bugs/processing/ticket3071\log.txt"/>
    </report>

</configuration>
-->

<net version="0.27" xmlns:xsi="http://www.w3.org/2001/XMLSchema-instance" xsi:noNamespaceSchemaLocation="http://sumo.dlr.de/xsd/net_file.xsd">

    <location netOffset="3.00,-25.00" convBoundary="49.90,0.00,90.00,40.00" origBoundary="-10000000000.00,-10000000000.00,10000000000.00,10000000000.00" projParameter="!"/>

    <edge id=":_gneJ13_gneJ17_gneJ19_0" function="internal">
        <lane id=":_gneJ13_gneJ17_gneJ19_0_0" index="0" disallow="pedestrian" speed="13.89" length="5.17" shape="88.31,21.41 83.14,21.43"/>
    </edge>
    <edge id=":_gneJ13_gneJ17_gneJ19_1" function="internal">
        <lane id=":_gneJ13_gneJ17_gneJ19_1_0" index="0" disallow="pedestrian" speed="13.89" length="5.17" shape="88.31,21.41 83.14,21.43"/>
    </edge>
    <edge id=":_gneJ13_gneJ17_gneJ19_2" function="internal">
        <lane id=":_gneJ13_gneJ17_gneJ19_2_0" index="0" disallow="pedestrian" speed="13.89" length="41.85" shape="88.31,21.41 82.03,18.12 68.27,19.90 54.53,21.68 48.31,18.39"/>
    </edge>
    <edge id=":_gneJ13_gneJ17_gneJ19_3" function="internal">
        <lane id=":_gneJ13_gneJ17_gneJ19_3_0" index="0" disallow="pedestrian" speed="13.89" length="20.21" shape="88.31,21.41 68.31,18.49"/>
    </edge>
    <edge id=":_gneJ13_gneJ17_gneJ19_4" function="internal">
        <lane id=":_gneJ13_gneJ17_gneJ19_4_0" index="0" disallow="pedestrian" speed="13.89" length="2.81" shape="88.31,21.41 88.31,18.59"/>
    </edge>
    <edge id=":_gneJ13_gneJ17_gneJ19_30" function="internal">
        <lane id=":_gneJ13_gneJ17_gneJ19_30_0" index="0" speed="13.89" length="11.63" shape="83.14,21.43 71.51,21.49"/>
    </edge>
    <edge id=":_gneJ13_gneJ17_gneJ19_31" function="internal">
        <lane id=":_gneJ13_gneJ17_gneJ19_31_0" index="0" speed="13.89" length="31.63" shape="83.14,21.43 51.51,21.59"/>
    </edge>
    <edge id=":_gneJ13_gneJ17_gneJ19_5" function="internal">
        <lane id=":_gneJ13_gneJ17_gneJ19_5_0" index="0" disallow="pedestrian" speed="13.89" length="2.78" shape="91.51,18.61 91.51,21.39"/>
    </edge>
    <edge id=":_gneJ13_gneJ17_gneJ19_6" function="internal">
        <lane id=":_gneJ13_gneJ17_gneJ19_6_0" index="0" disallow="pedestrian" speed="13.89" length="20.20" shape="91.51,18.61 71.51,21.49"/>
    </edge>
    <edge id=":_gneJ13_gneJ17_gneJ19_7" function="internal">
        <lane id=":_gneJ13_gneJ17_gneJ19_7_0" index="0" disallow="pedestrian" speed="13.89" length="41.84" shape="91.51,18.61 85.23,21.89 71.47,20.10 57.73,18.31 51.51,21.59"/>
    </edge>
    <edge id=":_gneJ13_gneJ17_gneJ19_8" function="internal">
        <lane id=":_gneJ13_gneJ17_gneJ19_8_0" index="0" disallow="pedestrian" speed="13.89" length="1.60" shape="91.51,18.61 89.91,18.60"/>
    </edge>
    <edge id=":_gneJ13_gneJ17_gneJ19_9" function="internal">
        <lane id=":_gneJ13_gneJ17_gneJ19_9_0" index="0" disallow="pedestrian" speed="13.89" length="1.60" shape="91.51,18.61 89.91,18.60"/>
    </edge>
    <edge id=":_gneJ13_gneJ17_gneJ19_32" function="internal">
        <lane id=":_gneJ13_gneJ17_gneJ19_32_0" index="0" speed="13.89" length="41.60" shape="89.91,18.60 48.31,18.39"/>
    </edge>
    <edge id=":_gneJ13_gneJ17_gneJ19_33" function="internal">
        <lane id=":_gneJ13_gneJ17_gneJ19_33_0" index="0" speed="13.89" length="21.60" shape="89.91,18.60 68.31,18.49"/>
    </edge>
    <edge id=":_gneJ13_gneJ17_gneJ19_10" function="internal">
        <lane id=":_gneJ13_gneJ17_gneJ19_10_0" index="0" disallow="pedestrian" speed="13.89" length="16.80" shape="71.51,18.51 88.31,18.59"/>
    </edge>
    <edge id=":_gneJ13_gneJ17_gneJ19_11" function="internal">
        <lane id=":_gneJ13_gneJ17_gneJ19_11_0" index="0" disallow="pedestrian" speed="13.89" length="20.21" shape="71.51,18.51 91.51,21.39"/>
    </edge>
    <edge id=":_gneJ13_gneJ17_gneJ19_12" function="internal">
        <lane id=":_gneJ13_gneJ17_gneJ19_12_0" index="0" disallow="pedestrian" speed="13.89" length="2.98" shape="71.51,18.51 71.51,21.49"/>
    </edge>
    <edge id=":_gneJ13_gneJ17_gneJ19_13" function="internal">
        <lane id=":_gneJ13_gneJ17_gneJ19_13_0" index="0" disallow="pedestrian" speed="13.89" length="20.23" shape="71.51,18.51 51.51,21.59"/>
    </edge>
    <edge id=":_gneJ13_gneJ17_gneJ19_14" function="internal">
        <lane id=":_gneJ13_gneJ17_gneJ19_14_0" index="0" disallow="pedestrian" speed="13.89" length="23.20" shape="71.51,18.51 48.31,18.39"/>
    </edge>
    <edge id=":_gneJ13_gneJ17_gneJ19_15" function="internal">
        <lane id=":_gneJ13_gneJ17_gneJ19_15_0" index="0" disallow="pedestrian" speed="13.89" length="16.80" shape="51.51,18.41 68.31,18.49"/>
    </edge>
    <edge id=":_gneJ13_gneJ17_gneJ19_16" function="internal">
        <lane id=":_gneJ13_gneJ17_gneJ19_16_0" index="0" disallow="pedestrian" speed="13.89" length="36.80" shape="51.51,18.41 88.31,18.59"/>
    </edge>
    <edge id=":_gneJ13_gneJ17_gneJ19_17" function="internal">
        <lane id=":_gneJ13_gneJ17_gneJ19_17_0" index="0" disallow="pedestrian" speed="13.89" length="41.85" shape="51.51,18.41 57.73,21.69 71.47,19.90 85.23,18.11 91.51,21.39"/>
    </edge>
    <edge id=":_gneJ13_gneJ17_gneJ19_18" function="internal">
        <lane id=":_gneJ13_gneJ17_gneJ19_18_0" index="0" disallow="pedestrian" speed="13.89" length="20.24" shape="51.51,18.41 71.51,21.49"/>
    </edge>
    <edge id=":_gneJ13_gneJ17_gneJ19_19" function="internal">
        <lane id=":_gneJ13_gneJ17_gneJ19_19_0" index="0" disallow="pedestrian" speed="13.89" length="3.18" shape="51.51,18.41 51.51,21.59"/>
    </edge>
    <edge id=":_gneJ13_gneJ17_gneJ19_20" function="internal">
        <lane id=":_gneJ13_gneJ17_gneJ19_20_0" index="0" disallow="pedestrian" speed="13.89" length="3.21" shape="48.31,21.60 48.31,18.39"/>
    </edge>
    <edge id=":_gneJ13_gneJ17_gneJ19_21" function="internal">
        <lane id=":_gneJ13_gneJ17_gneJ19_21_0" index="0" disallow="pedestrian" speed="13.89" length="20.24" shape="48.31,21.60 68.31,18.49"/>
    </edge>
    <edge id=":_gneJ13_gneJ17_gneJ19_22" function="internal">
        <lane id=":_gneJ13_gneJ17_gneJ19_22_0" index="0" disallow="pedestrian" speed="13.89" length="41.85" shape="48.31,21.60 54.53,18.32 68.27,20.10 82.03,21.88 88.31,18.59"/>
    </edge>
    <edge id=":_gneJ13_gneJ17_gneJ19_23" function="internal">
        <lane id=":_gneJ13_gneJ17_gneJ19_23_0" index="0" disallow="pedestrian" speed="13.89" length="43.20" shape="48.31,21.60 91.51,21.39"/>
    </edge>
    <edge id=":_gneJ13_gneJ17_gneJ19_24" function="internal">
        <lane id=":_gneJ13_gneJ17_gneJ19_24_0" index="0" disallow="pedestrian" speed="13.89" length="23.20" shape="48.31,21.60 71.51,21.49"/>
    </edge>
    <edge id=":_gneJ13_gneJ17_gneJ19_25" function="internal">
        <lane id=":_gneJ13_gneJ17_gneJ19_25_0" index="0" disallow="pedestrian" speed="13.89" length="16.80" shape="68.31,21.51 51.51,21.59"/>
    </edge>
    <edge id=":_gneJ13_gneJ17_gneJ19_26" function="internal">
        <lane id=":_gneJ13_gneJ17_gneJ19_26_0" index="0" disallow="pedestrian" speed="13.89" length="20.24" shape="68.31,21.51 48.31,18.39"/>
    </edge>
    <edge id=":_gneJ13_gneJ17_gneJ19_27" function="internal">
        <lane id=":_gneJ13_gneJ17_gneJ19_27_0" index="0" disallow="pedestrian" speed="13.89" length="3.01" shape="68.31,21.51 68.31,18.49"/>
    </edge>
    <edge id=":_gneJ13_gneJ17_gneJ19_28" function="internal">
        <lane id=":_gneJ13_gneJ17_gneJ19_28_0" index="0" disallow="pedestrian" speed="13.89" length="20.21" shape="68.31,21.51 88.31,18.59"/>
    </edge>
    <edge id=":_gneJ13_gneJ17_gneJ19_29" function="internal">
        <lane id=":_gneJ13_gneJ17_gneJ19_29_0" index="0" disallow="pedestrian" speed="13.89" length="23.20" shape="68.31,21.51 91.51,21.39"/>
    </edge>
    <edge id=":_gneJ13_gneJ17_gneJ19_w0" function="walkingarea">
        <lane id=":_gneJ13_gneJ17_gneJ19_w0_0" index="0" allow="pedestrian" speed="1.00" length="2.75" width="2.00" shape="93.11,21.38 95.11,21.37 95.11,18.63 93.11,18.62"/>
    </edge>
    <edge id=":_gneJ13_gneJ17_gneJ19_w1" function="walkingarea">
        <lane id=":_gneJ13_gneJ17_gneJ19_w1_0" index="0" allow="pedestrian" speed="1.00" length="11.60" width="2.00" shape="86.71,18.59 84.71,18.58 75.11,18.53 73.11,18.52"/>
    </edge>
    <edge id=":_gneJ13_gneJ17_gneJ19_w2" function="walkingarea">
        <lane id=":_gneJ13_gneJ17_gneJ19_w2_0" index="0" allow="pedestrian" speed="1.00" length="11.60" width="2.00" shape="66.71,18.49 64.71,18.48 55.11,18.43 53.11,18.42"/>
    </edge>
    <edge id=":_gneJ13_gneJ17_gneJ19_w3" function="walkingarea">
        <lane id=":_gneJ13_gneJ17_gneJ19_w3_0" index="0" allow="pedestrian" speed="1.00" length="3.24" width="2.00" shape="46.71,18.39 44.71,18.38 44.71,21.62 46.71,21.61"/>
    </edge>
    <edge id=":_gneJ13_gneJ17_gneJ19_w4" function="walkingarea">
        <lane id=":_gneJ13_gneJ17_gneJ19_w4_0" index="0" allow="pedestrian" speed="1.00" length="11.60" width="2.00" shape="53.11,21.58 55.11,21.57 64.71,21.52 66.71,21.51"/>
    </edge>
    <edge id=":_gneJ13_gneJ17_gneJ19_w5" function="walkingarea">
        <lane id=":_gneJ13_gneJ17_gneJ19_w5_0" index="0" allow="pedestrian" speed="1.00" length="11.60" width="2.00" shape="73.11,21.48 75.11,21.47 84.71,21.42 86.71,21.41"/>
    </edge>
    <edge id=":gneJ11_0" function="internal">
        <lane id=":gneJ11_0_0" index="0" disallow="pedestrian" speed="13.89" length="13.40" shape="76.67,41.60 63.27,41.60"/>
    </edge>
    <edge id=":gneJ11_1" function="internal">
        <lane id=":gneJ11_1_0" index="0" disallow="pedestrian" speed="13.89" length="5.75" shape="76.67,41.60 73.06,41.08 71.26,40.00"/>
    </edge>
    <edge id=":gneJ11_6" function="internal">
        <lane id=":gneJ11_6_0" index="0" speed="13.89" length="7.64" shape="71.26,40.00 70.46,39.52 68.90,36.92 68.37,33.28"/>
    </edge>
    <edge id=":gneJ11_2" function="internal">
        <lane id=":gneJ11_2_0" index="0" disallow="pedestrian" speed="13.89" length="8.25" shape="71.57,33.27 71.90,35.51 72.86,37.12 74.45,38.08 76.67,38.40"/>
    </edge>
    <edge id=":gneJ11_3" function="internal">
        <lane id=":gneJ11_3_0" index="0" disallow="pedestrian" speed="13.89" length="13.42" shape="71.57,33.27 71.06,36.91 69.51,39.52 66.92,41.08 63.27,41.60"/>
    </edge>
    <edge id=":gneJ11_4" function="internal">
        <lane id=":gneJ11_4_0" index="0" disallow="pedestrian" speed="13.89" length="3.79" shape="63.27,38.40 65.51,38.08 66.82,37.29"/>
    </edge>
    <edge id=":gneJ11_5" function="internal">
        <lane id=":gneJ11_5_0" index="0" disallow="pedestrian" speed="13.89" length="13.40" shape="63.27,38.40 76.67,38.40"/>
    </edge>
    <edge id=":gneJ11_7" function="internal">
        <lane id=":gneJ11_7_0" index="0" speed="13.89" length="4.45" shape="66.82,37.29 67.11,37.12 68.06,35.52 68.37,33.28"/>
    </edge>
    <edge id=":gneJ11_c0" function="crossing" crossingEdges="gneE8 -gneE8">
        <lane id=":gneJ11_c0_0" index="0" allow="pedestrian" speed="1.00" length="6.40" width="4.00" shape="74.67,36.80 74.67,43.20"/>
    </edge>
    <edge id=":gneJ11_c1" function="crossing" crossingEdges="-gneE16 gneE16">
        <lane id=":gneJ11_c1_0" index="0" allow="pedestrian" speed="1.00" length="6.40" width="4.00" shape="66.78,35.29 73.18,35.26"/>
    </edge>
    <edge id=":gneJ11_c2" function="crossing" crossingEdges="-gneE15 gneE15">
        <lane id=":gneJ11_c2_0" index="0" allow="pedestrian" speed="1.00" length="6.40" width="4.00" shape="65.27,43.20 65.27,36.80"/>
    </edge>
    <edge id=":gneJ11_w0" function="walkingarea">
        <lane id=":gneJ11_w0_0" index="0" allow="pedestrian" speed="1.00" length="8.36" width="4.00" shape="67.27,43.20 63.27,43.20 63.27,45.20 76.67,45.20 76.67,43.20 72.67,43.20"/>
    </edge>
    <edge id=":gneJ11_w1" function="walkingarea">
        <lane id=":gneJ11_w1_0" index="0" allow="pedestrian" speed="1.00" length="2.89" width="4.00" shape="72.67,36.80 76.67,36.80 76.67,34.80 75.17,33.25 73.17,33.26 73.19,37.26"/>
    </edge>
    <edge id=":gneJ11_w2" function="walkingarea">
        <lane id=":gneJ11_w2_0" index="0" allow="pedestrian" speed="1.00" length="2.87" width="4.00" shape="66.79,37.29 66.77,33.29 64.77,33.30 63.27,34.80 63.27,36.80 67.27,36.80"/>
    </edge>
    <edge id=":gneJ12_0" function="internal">
        <lane id=":gneJ12_0_0" index="0" disallow="pedestrian" speed="13.89" length="11.01" shape="91.57,34.77 91.16,37.76 89.89,39.89 87.76,41.17 84.77,41.60"/>
    </edge>
    <edge id=":gneJ12_1" function="internal">
        <lane id=":gneJ12_1_0" index="0" disallow="pedestrian" speed="13.89" length="5.83" shape="84.77,38.40 86.36,38.17 87.48,37.50 88.16,36.36 88.37,34.78"/>
    </edge>
    <edge id=":gneJ12_c0" function="crossing" crossingEdges="gneE9 -gneE9">
        <lane id=":gneJ12_c0_0" index="0" allow="pedestrian" speed="1.00" length="6.40" width="4.00" shape="86.78,36.79 93.18,36.76"/>
    </edge>
    <edge id=":gneJ12_w0" function="walkingarea">
        <lane id=":gneJ12_w0_0" index="0" allow="pedestrian" speed="1.00" length="8.93" width="4.00" shape="84.77,43.20 84.77,45.20 95.17,34.75 93.17,34.76 93.19,38.76"/>
    </edge>
    <edge id=":gneJ12_w1" function="walkingarea">
        <lane id=":gneJ12_w1_0" index="0" allow="pedestrian" speed="1.00" length="1.96" width="4.00" shape="86.79,38.79 86.77,34.79 84.77,34.80 84.77,34.80 84.77,36.80"/>
    </edge>
    <edge id=":gneJ14_0" function="internal">
        <lane id=":gneJ14_0_0" index="0" disallow="pedestrian" speed="13.89" length="11.01" shape="84.77,-1.60 87.76,-1.17 89.89,0.11 91.16,2.24 91.57,5.23"/>
    </edge>
    <edge id=":gneJ14_1" function="internal">
        <lane id=":gneJ14_1_0" index="0" disallow="pedestrian" speed="13.89" length="5.83" shape="88.37,5.22 88.16,3.64 87.48,2.50 86.36,1.83 84.77,1.60"/>
    </edge>
    <edge id=":gneJ14_c0" function="crossing" crossingEdges="-gneE10 gneE10">
        <lane id=":gneJ14_c0_0" index="0" allow="pedestrian" speed="1.00" length="6.40" width="4.00" shape="93.18,3.24 86.78,3.21"/>
    </edge>
    <edge id=":gneJ14_w0" function="walkingarea">
        <lane id=":gneJ14_w0_0" index="0" allow="pedestrian" speed="1.00" length="8.93" width="4.00" shape="93.19,1.24 93.17,5.24 95.17,5.25 84.77,-5.20 84.77,-3.20"/>
    </edge>
    <edge id=":gneJ14_w1" function="walkingarea">
        <lane id=":gneJ14_w1_0" index="0" allow="pedestrian" speed="1.00" length="1.96" width="4.00" shape="84.77,3.20 84.77,5.20 84.77,5.20 86.77,5.21 86.79,1.21"/>
    </edge>
    <edge id=":gneJ15_0" function="internal">
        <lane id=":gneJ15_0_0" index="0" disallow="pedestrian" speed="13.89" length="3.84" shape="76.67,1.60 74.45,1.92 73.09,2.74"/>
    </edge>
    <edge id=":gneJ15_1" function="internal">
        <lane id=":gneJ15_1_0" index="0" disallow="pedestrian" speed="13.89" length="13.40" shape="76.67,1.60 63.27,1.60"/>
    </edge>
    <edge id=":gneJ15_6" function="internal">
        <lane id=":gneJ15_6_0" index="0" speed="13.89" length="4.41" shape="73.09,2.74 72.86,2.88 71.90,4.49 71.57,6.73"/>
    </edge>
    <edge id=":gneJ15_2" function="internal">
        <lane id=":gneJ15_2_0" index="0" disallow="pedestrian" speed="13.89" length="13.40" shape="63.27,-1.60 76.67,-1.60"/>
    </edge>
    <edge id=":gneJ15_3" function="internal">
        <lane id=":gneJ15_3_0" index="0" disallow="pedestrian" speed="13.89" length="5.77" shape="63.27,-1.60 66.92,-1.08 68.71,0.00"/>
    </edge>
    <edge id=":gneJ15_7" function="internal">
        <lane id=":gneJ15_7_0" index="0" speed="13.89" length="7.65" shape="68.71,0.00 69.51,0.48 71.06,3.09 71.57,6.73"/>
    </edge>
    <edge id=":gneJ15_4" function="internal">
        <lane id=":gneJ15_4_0" index="0" disallow="pedestrian" speed="13.89" length="8.24" shape="68.37,6.72 68.06,4.48 67.11,2.88 65.51,1.92 63.27,1.60"/>
    </edge>
    <edge id=":gneJ15_5" function="internal">
        <lane id=":gneJ15_5_0" index="0" disallow="pedestrian" speed="13.89" length="13.39" shape="68.37,6.72 68.90,3.08 70.46,0.48 73.05,-1.08 76.67,-1.60"/>
    </edge>
    <edge id=":gneJ15_c0" function="crossing" crossingEdges="-gneE11 gneE11">
        <lane id=":gneJ15_c0_0" index="0" allow="pedestrian" speed="1.00" length="6.40" width="4.00" shape="74.67,-3.20 74.67,3.20"/>
    </edge>
    <edge id=":gneJ15_c1" function="crossing" crossingEdges="gneE12 -gneE12">
        <lane id=":gneJ15_c1_0" index="0" allow="pedestrian" speed="1.00" length="6.40" width="4.00" shape="65.27,3.20 65.27,-3.20"/>
    </edge>
    <edge id=":gneJ15_c2" function="crossing" crossingEdges="-gneE18 gneE18">
        <lane id=":gneJ15_c2_0" index="0" allow="pedestrian" speed="1.00" length="6.40" width="4.00" shape="73.18,4.74 66.78,4.71"/>
    </edge>
    <edge id=":gneJ15_w0" function="walkingarea">
        <lane id=":gneJ15_w0_0" index="0" allow="pedestrian" speed="1.00" length="2.89" width="4.00" shape="73.19,2.74 73.17,6.74 75.17,6.75 76.67,5.20 76.67,3.20 72.67,3.20"/>
    </edge>
    <edge id=":gneJ15_w1" function="walkingarea">
        <lane id=":gneJ15_w1_0" index="0" allow="pedestrian" speed="1.00" length="8.36" width="4.00" shape="72.67,-3.20 76.67,-3.20 76.67,-5.20 63.27,-5.20 63.27,-3.20 67.27,-3.20"/>
    </edge>
    <edge id=":gneJ15_w2" function="walkingarea">
        <lane id=":gneJ15_w2_0" index="0" allow="pedestrian" speed="1.00" length="2.87" width="4.00" shape="67.27,3.20 63.27,3.20 63.27,5.20 64.77,6.70 66.77,6.71 66.79,2.71"/>
    </edge>
    <edge id=":gneJ16_0" function="internal">
        <lane id=":gneJ16_0_0" index="0" disallow="pedestrian" speed="13.89" length="5.78" shape="55.17,1.60 53.61,1.82 52.48,2.50 51.81,3.61 51.57,5.18"/>
    </edge>
    <edge id=":gneJ16_1" function="internal">
        <lane id=":gneJ16_1_0" index="0" disallow="pedestrian" speed="13.89" length="10.93" shape="48.37,5.17 48.81,2.21 50.09,0.09 52.21,-1.18 55.17,-1.60"/>
    </edge>
    <edge id=":gneJ16_c0" function="crossing" crossingEdges="gneE13 -gneE13">
        <lane id=":gneJ16_c0_0" index="0" allow="pedestrian" speed="1.00" length="6.40" width="4.00" shape="53.18,3.19 46.78,3.16"/>
    </edge>
    <edge id=":gneJ16_w0" function="walkingarea">
        <lane id=":gneJ16_w0_0" index="0" allow="pedestrian" speed="1.00" length="1.96" width="4.00" shape="53.19,1.19 53.17,5.19 55.17,5.20 55.17,5.20 55.17,3.20"/>
    </edge>
    <edge id=":gneJ16_w1" function="walkingarea">
        <lane id=":gneJ16_w1_0" index="0" allow="pedestrian" speed="1.00" length="8.89" width="4.00" shape="55.17,-3.20 55.17,-5.20 44.77,5.15 46.77,5.16 46.79,1.16"/>
    </edge>
    <edge id=":gneJ18_0" function="internal">
        <lane id=":gneJ18_0_0" index="0" disallow="pedestrian" speed="13.89" length="10.93" shape="55.17,41.60 52.21,41.18 50.09,39.91 48.81,37.79 48.37,34.83"/>
    </edge>
    <edge id=":gneJ18_1" function="internal">
        <lane id=":gneJ18_1_0" index="0" disallow="pedestrian" speed="13.89" length="5.79" shape="51.57,34.82 51.81,36.39 52.48,37.50 53.61,38.18 55.17,38.40"/>
    </edge>
    <edge id=":gneJ18_c0" function="crossing" crossingEdges="gneE15 -gneE15">
        <lane id=":gneJ18_c0_0" index="0" allow="pedestrian" speed="1.00" length="6.40" width="4.00" shape="53.17,36.80 53.17,43.20"/>
    </edge>
    <edge id=":gneJ18_w0" function="walkingarea">
        <lane id=":gneJ18_w0_0" index="0" allow="pedestrian" speed="1.00" length="8.89" width="4.00" shape="46.77,34.84 44.77,34.85 55.17,45.20 55.17,43.20 51.17,43.20"/>
    </edge>
    <edge id=":gneJ18_w1" function="walkingarea">
        <lane id=":gneJ18_w1_0" index="0" allow="pedestrian" speed="1.00" length="1.96" width="4.00" shape="51.17,36.80 55.17,36.80 55.17,34.80 55.17,34.80 53.17,34.81"/>
    </edge>

    <edge id="-gneE10" from="gneJ14" to="_gneJ13_gneJ17_gneJ19" priority="1" shape="90.00,0.00 89.90,19.90">
        <lane id="-gneE10_0" index="0" allow="pedestrian" speed="13.89" length="13.38" width="2.00" shape="94.17,5.25 94.11,18.62"/>
        <lane id="-gneE10_1" index="1" disallow="pedestrian" speed="13.89" length="13.38" shape="91.57,5.23 91.51,18.61"/>
    </edge>
    <edge id="-gneE11" from="gneJ15" to="gneJ14" priority="1">
        <lane id="-gneE11_0" index="0" allow="pedestrian" speed="13.89" length="8.10" width="2.00" shape="76.67,-4.20 84.77,-4.20"/>
        <lane id="-gneE11_1" index="1" disallow="pedestrian" speed="13.89" length="8.10" shape="76.67,-1.60 84.77,-1.60"/>
    </edge>
    <edge id="-gneE12" from="gneJ16" to="gneJ15" priority="1">
        <lane id="-gneE12_0" index="0" allow="pedestrian" speed="13.89" length="8.10" width="2.00" shape="55.17,-4.20 63.27,-4.20"/>
        <lane id="-gneE12_1" index="1" disallow="pedestrian" speed="13.89" length="8.10" shape="55.17,-1.60 63.27,-1.60"/>
    </edge>
    <edge id="-gneE13" from="_gneJ13_gneJ17_gneJ19" to="gneJ16" priority="1" shape="49.90,19.90 50.00,0.00">
        <lane id="-gneE13_0" index="0" allow="pedestrian" speed="13.89" length="13.23" width="2.00" shape="45.71,18.38 45.77,5.15"/>
        <lane id="-gneE13_1" index="1" disallow="pedestrian" speed="13.89" length="13.23" shape="48.31,18.39 48.37,5.17"/>
    </edge>
    <edge id="-gneE14" from="gneJ18" to="_gneJ13_gneJ17_gneJ19" priority="1" shape="50.00,40.00 49.90,19.90">
        <lane id="-gneE14_0" index="0" allow="pedestrian" speed="13.89" length="13.23" width="2.00" shape="45.77,34.85 45.71,21.62"/>
        <lane id="-gneE14_1" index="1" disallow="pedestrian" speed="13.89" length="13.23" shape="48.37,34.83 48.31,21.60"/>
    </edge>
    <edge id="-gneE15" from="gneJ11" to="gneJ18" priority="1">
        <lane id="-gneE15_0" index="0" allow="pedestrian" speed="13.89" length="8.10" width="2.00" shape="63.27,44.20 55.17,44.20"/>
        <lane id="-gneE15_1" index="1" disallow="pedestrian" speed="13.89" length="8.10" shape="63.27,41.60 55.17,41.60"/>
    </edge>
    <edge id="-gneE16" from="gneJ11" to="_gneJ13_gneJ17_gneJ19" priority="1" shape="70.00,40.00 69.90,19.90">
        <lane id="-gneE16_0" index="0" allow="pedestrian" speed="13.89" length="11.78" width="2.00" shape="65.77,33.30 65.71,21.52"/>
        <lane id="-gneE16_1" index="1" disallow="pedestrian" speed="13.89" length="11.78" shape="68.37,33.28 68.31,21.51"/>
    </edge>
    <edge id="-gneE18" from="gneJ15" to="_gneJ13_gneJ17_gneJ19" priority="1" shape="70.00,0.00 69.90,19.90">
        <lane id="-gneE18_0" index="0" allow="pedestrian" speed="13.89" length="11.78" width="2.00" shape="74.17,6.75 74.11,18.52"/>
        <lane id="-gneE18_1" index="1" disallow="pedestrian" speed="13.89" length="11.78" shape="71.57,6.73 71.51,18.51"/>
    </edge>
    <edge id="-gneE8" from="gneJ12" to="gneJ11" priority="1">
        <lane id="-gneE8_0" index="0" allow="pedestrian" speed="13.89" length="8.10" width="2.00" shape="84.77,44.20 76.67,44.20"/>
        <lane id="-gneE8_1" index="1" disallow="pedestrian" speed="13.89" length="8.10" shape="84.77,41.60 76.67,41.60"/>
    </edge>
    <edge id="-gneE9" from="_gneJ13_gneJ17_gneJ19" to="gneJ12" priority="1" shape="89.90,19.90 90.00,40.00">
        <lane id="-gneE9_0" index="0" allow="pedestrian" speed="13.89" length="13.38" width="2.00" shape="94.11,21.38 94.17,34.75"/>
        <lane id="-gneE9_1" index="1" disallow="pedestrian" speed="13.89" length="13.38" shape="91.51,21.39 91.57,34.77"/>
    </edge>
    <edge id="gneE10" from="_gneJ13_gneJ17_gneJ19" to="gneJ14" priority="1" shape="89.90,19.90 90.00,0.00">
        <lane id="gneE10_0" index="0" allow="pedestrian" speed="13.89" length="13.38" width="2.00" shape="85.71,18.58 85.77,5.21"/>
        <lane id="gneE10_1" index="1" disallow="pedestrian" speed="13.89" length="13.38" shape="88.31,18.59 88.37,5.22"/>
    </edge>
    <edge id="gneE11" from="gneJ14" to="gneJ15" priority="1">
        <lane id="gneE11_0" index="0" allow="pedestrian" speed="13.89" length="8.10" width="2.00" shape="84.77,4.20 76.67,4.20"/>
        <lane id="gneE11_1" index="1" disallow="pedestrian" speed="13.89" length="8.10" shape="84.77,1.60 76.67,1.60"/>
    </edge>
    <edge id="gneE12" from="gneJ15" to="gneJ16" priority="1">
        <lane id="gneE12_0" index="0" allow="pedestrian" speed="13.89" length="8.10" width="2.00" shape="63.27,4.20 55.17,4.20"/>
        <lane id="gneE12_1" index="1" disallow="pedestrian" speed="13.89" length="8.10" shape="63.27,1.60 55.17,1.60"/>
    </edge>
    <edge id="gneE13" from="gneJ16" to="_gneJ13_gneJ17_gneJ19" priority="1" shape="50.00,0.00 49.90,19.90">
        <lane id="gneE13_0" index="0" allow="pedestrian" speed="13.89" length="13.23" width="2.00" shape="54.17,5.19 54.11,18.42"/>
        <lane id="gneE13_1" index="1" disallow="pedestrian" speed="13.89" length="13.23" shape="51.57,5.18 51.51,18.41"/>
    </edge>
    <edge id="gneE14" from="_gneJ13_gneJ17_gneJ19" to="gneJ18" priority="1" shape="49.90,19.90 50.00,40.00">
        <lane id="gneE14_0" index="0" allow="pedestrian" speed="13.89" length="13.23" width="2.00" shape="54.11,21.58 54.17,34.80"/>
        <lane id="gneE14_1" index="1" disallow="pedestrian" speed="13.89" length="13.23" shape="51.51,21.59 51.57,34.82"/>
    </edge>
    <edge id="gneE15" from="gneJ18" to="gneJ11" priority="1">
        <lane id="gneE15_0" index="0" allow="pedestrian" speed="13.89" length="8.10" width="2.00" shape="55.17,35.80 63.27,35.80"/>
        <lane id="gneE15_1" index="1" disallow="pedestrian" speed="13.89" length="8.10" shape="55.17,38.40 63.27,38.40"/>
    </edge>
    <edge id="gneE16" from="_gneJ13_gneJ17_gneJ19" to="gneJ11" priority="1" shape="69.90,19.90 70.00,40.00">
        <lane id="gneE16_0" index="0" allow="pedestrian" speed="13.89" length="11.78" width="2.00" shape="74.11,21.48 74.17,33.25"/>
        <lane id="gneE16_1" index="1" disallow="pedestrian" speed="13.89" length="11.78" shape="71.51,21.49 71.57,33.27"/>
    </edge>
    <edge id="gneE18" from="_gneJ13_gneJ17_gneJ19" to="gneJ15" priority="1" shape="69.90,19.90 70.00,0.00">
        <lane id="gneE18_0" index="0" allow="pedestrian" speed="13.89" length="11.78" width="2.00" shape="65.71,18.48 65.77,6.71"/>
        <lane id="gneE18_1" index="1" disallow="pedestrian" speed="13.89" length="11.78" shape="68.31,18.49 68.37,6.72"/>
    </edge>
    <edge id="gneE8" from="gneJ11" to="gneJ12" priority="1">
        <lane id="gneE8_0" index="0" allow="pedestrian" speed="13.89" length="8.10" width="2.00" shape="76.67,35.80 84.77,35.80"/>
        <lane id="gneE8_1" index="1" disallow="pedestrian" speed="13.89" length="8.10" shape="76.67,38.40 84.77,38.40"/>
    </edge>
    <edge id="gneE9" from="gneJ12" to="_gneJ13_gneJ17_gneJ19" priority="1" shape="90.00,40.00 89.90,19.90">
        <lane id="gneE9_0" index="0" allow="pedestrian" speed="13.89" length="13.38" width="2.00" shape="85.77,34.80 85.71,21.42"/>
        <lane id="gneE9_1" index="1" disallow="pedestrian" speed="13.89" length="13.38" shape="88.37,34.78 88.31,21.41"/>
    </edge>

    <junction id="_gneJ13_gneJ17_gneJ19" type="priority" x="70.00" y="20.00" incLanes="gneE9_0 gneE9_1 -gneE10_0 -gneE10_1 -gneE18_0 -gneE18_1 gneE13_0 gneE13_1 -gneE14_0 -gneE14_1 -gneE16_0 -gneE16_1" intLanes=":_gneJ13_gneJ17_gneJ19_30_0 :_gneJ13_gneJ17_gneJ19_31_0 :_gneJ13_gneJ17_gneJ19_2_0 :_gneJ13_gneJ17_gneJ19_3_0 :_gneJ13_gneJ17_gneJ19_4_0 :_gneJ13_gneJ17_gneJ19_5_0 :_gneJ13_gneJ17_gneJ19_6_0 :_gneJ13_gneJ17_gneJ19_7_0 :_gneJ13_gneJ17_gneJ19_32_0 :_gneJ13_gneJ17_gneJ19_33_0 :_gneJ13_gneJ17_gneJ19_10_0 :_gneJ13_gneJ17_gneJ19_11_0 :_gneJ13_gneJ17_gneJ19_12_0 :_gneJ13_gneJ17_gneJ19_13_0 :_gneJ13_gneJ17_gneJ19_14_0 :_gneJ13_gneJ17_gneJ19_15_0 :_gneJ13_gneJ17_gneJ19_16_0 :_gneJ13_gneJ17_gneJ19_17_0 :_gneJ13_gneJ17_gneJ19_18_0 :_gneJ13_gneJ17_gneJ19_19_0 :_gneJ13_gneJ17_gneJ19_20_0 :_gneJ13_gneJ17_gneJ19_21_0 :_gneJ13_gneJ17_gneJ19_22_0 :_gneJ13_gneJ17_gneJ19_23_0 :_gneJ13_gneJ17_gneJ19_24_0 :_gneJ13_gneJ17_gneJ19_25_0 :_gneJ13_gneJ17_gneJ19_26_0 :_gneJ13_gneJ17_gneJ19_27_0 :_gneJ13_gneJ17_gneJ19_28_0 :_gneJ13_gneJ17_gneJ19_29_0" shape="44.71,21.62 95.11,21.37 95.11,18.63 44.71,18.38">