<routes>
    <route id="r1" edges="beg middle"/>
    <vehicle id="0" depart="0" arrivalpos="400" route="r1"/>
</routes>
