<?xml version="1.0" encoding="iso-8859-1"?>


<net version="0.13" xmlns:xsi="http://www.w3.org/2001/XMLSchema-instance" xsi:noNamespaceSchemaLocation="http://sumo.sf.net/xsd/net_file.xsd">

    <location netOffset="-500.00,0.00" convBoundary="0.00,0.00,1000.00,0.00" origBoundary="500.00,0.00,1500.00,0.00" projParameter="!"/>

    <edge id=":c2_0" function="internal">
        <lane id=":c2_0_0" index="0" maxSpeed="27.80" length="0.10" shape="502.00,-1.65 502.00,-1.65"/>
    </edge>
    <edge id=":center_0" function="internal">
        <lane id=":center_0_0" index="0" maxSpeed="27.80" length="0.10" shape="500.00,-1.65 500.00,-1.65"/>
    </edge>

    <edge id="beg" from="beg" to="center" priority="-1">
        <lane id="beg_0" index="0" maxSpeed="27.80" length="500.00" shape="0.00,-1.65 500.00,-1.65"/>
    </edge>
    <edge id="end" from="c2" to="end" priority="-1">
        <lane id="end_0" index="0" maxSpeed="27.80" length="498.00" shape="502.00,-1.65 1000.00,-1.65"/>
    </edge>
    <edge id="middle" from="center" to="c2" priority="-1">
        <lane id="middle_0" index="0" maxSpeed="27.80" length="2.00" shape="500.00,-1.65 502.00,-1.65"/>
    </edge>

    <junction id="beg" type="dead_end" x="0.00" y="0.00" incLanes="" intLanes="" shape="0.00,-0.05 0.00,-3.25"/>
    <junction id="c2" type="priority" x="502.00" y="0.00" incLanes="middle_0" intLanes=":c2_0_0" shape="502.00,-0.05 502.00,-3.25 502.00,-0.05">
        <request index="0" response="0" foes="0" cont="0"/>
    </junction>
    <junction id="center" type="priority" x="500.00" y="0.00" incLanes="beg_0" intLanes=":center_0_0" shape="500.00,-0.05 500.00,-3.25 500.00,-0.05">
        <request index="0" response="0" foes="0" cont="0"/>
    </junction>
    <junction id="end" type="dead_end" x="1000.00" y="0.00" incLanes="end_0" intLanes="" shape="1000.00,-3.25 1000.00,-0.05"/>

    <succ edge="beg" lane="beg_0" junction="center">
        <succlane lane="middle_0" via=":center_0_0" dir="s" state="M"/>
    </succ>
    <succ edge="end" lane="end_0" junction="end">
        <succlane lane="SUMO_NO_DESTINATION" dir="s" state="O"/>
    </succ>
    <succ edge="middle" lane="middle_0" junction="c2">
        <succlane lane="end_0" via=":c2_0_0" dir="s" state="M"/>
    </succ>

    <succ edge=":c2_0" lane=":c2_0_0" junction="c2">
        <succlane lane="end_0" dir="s" state="M"/>
    </succ>
    <succ edge=":center_0" lane=":center_0_0" junction="center">
        <succlane lane="middle_0" dir="s" state="M"/>
    </succ>

</net>
