<?xml version="1.0" encoding="UTF-8"?>

<!-- generated on 2022-02-03 23:28:21 by Eclipse SUMO sumo Version v1_12_0+0251-6e60cf8
This data file and the accompanying materials
are made available under the terms of the Eclipse Public License v2.0
which accompanies this distribution, and is available at
http://www.eclipse.org/legal/epl-v20.html
This file may also be made available under the following Secondary
Licenses when the conditions for such availability set forth in the Eclipse
Public License 2.0 are satisfied: GNU General Public License, version 2
or later which is available at
https://www.gnu.org/licenses/old-licenses/gpl-2.0-standalone.html
SPDX-License-Identifier: EPL-2.0 OR GPL-2.0-or-later
<configuration xmlns:xsi="http://www.w3.org/2001/XMLSchema-instance" xsi:noNamespaceSchemaLocation="http://sumo.dlr.de/xsd/sumoConfiguration.xsd">

    <input>
        <net-file value="net.net.xml"/>
        <route-files value="input_routes.rou.xml"/>
        <additional-files value="input_additional.add.xml,input_additional2.add.xml"/>
    </input>

    <output>
        <write-license value="true"/>
    </output>

    <processing>
        <max-depart-delay value="60"/>
        <default.speeddev value="0"/>
    </processing>

    <report>
        <verbose value="true"/>
        <xml-validation value="never"/>
        <xml-validation.routes value="never"/>
        <duration-log.statistics value="true"/>
        <no-step-log value="true"/>
    </report>

</configuration>
-->

<tlsStates xmlns:xsi="http://www.w3.org/2001/XMLSchema-instance" xsi:noNamespaceSchemaLocation="http://sumo.dlr.de/xsd/tlsstates_file.xsd">
    <tlsState time="0.00" id="C0" programID="custom" phase="0" state="GGggrrrrGGggrrrr"/>
    <tlsState time="5.00" id="C0" programID="custom" phase="1" state="yyyyrrrryyyyrrrr"/>
    <tlsState time="8.00" id="C0" programID="custom" phase="2" state="rrrrGGggrrrrGGgg"/>
    <tlsState time="97.00" id="C0" programID="custom" phase="3" state="rrrryyyyrrrryyyy"/>
    <tlsState time="100.00" id="C0" programID="custom" phase="0" state="GGggrrrrGGggrrrr"/>
    <tlsState time="189.00" id="C0" programID="custom" phase="1" state="yyyyrrrryyyyrrrr"/>
    <tlsState time="192.00" id="C0" programID="custom" phase="2" state="rrrrGGggrrrrGGgg"/>
    <tlsState time="197.00" id="C0" programID="custom" phase="3" state="rrrryyyyrrrryyyy"/>
    <tlsState time="200.00" id="C0" programID="custom" phase="0" state="GGggrrrrGGggrrrr"/>
    <tlsState time="289.00" id="C0" programID="custom" phase="1" state="yyyyrrrryyyyrrrr"/>
    <tlsState time="292.00" id="C0" programID="custom" phase="2" state="rrrrGGggrrrrGGgg"/>
    <tlsState time="297.00" id="C0" programID="custom" phase="3" state="rrrryyyyrrrryyyy"/>
    <tlsState time="300.00" id="C0" programID="custom" phase="0" state="GGggrrrrGGggrrrr"/>
    <tlsState time="341.00" id="C0" programID="custom" phase="1" state="yyyyrrrryyyyrrrr"/>
    <tlsState time="344.00" id="C0" programID="custom" phase="2" state="rrrrGGggrrrrGGgg"/>
    <tlsState time="397.00" id="C0" programID="custom" phase="3" state="rrrryyyyrrrryyyy"/>
    <tlsState time="400.00" id="C0" programID="custom" phase="0" state="GGggrrrrGGggrrrr"/>
    <tlsState time="489.00" id="C0" programID="custom" phase="1" state="yyyyrrrryyyyrrrr"/>
    <tlsState time="492.00" id="C0" programID="custom" phase="2" state="rrrrGGggrrrrGGgg"/>
    <tlsState time="497.00" id="C0" programID="custom" phase="3" state="rrrryyyyrrrryyyy"/>
    <tlsState time="500.00" id="C0" programID="custom" phase="0" state="GGggrrrrGGggrrrr"/>
    <tlsState time="541.00" id="C0" programID="custom" phase="1" state="yyyyrrrryyyyrrrr"/>
    <tlsState time="544.00" id="C0" programID="custom" phase="2" state="rrrrGGggrrrrGGgg"/>
    <tlsState time="597.00" id="C0" programID="custom" phase="3" state="rrrryyyyrrrryyyy"/>
    <tlsState time="600.00" id="C0" programID="custom" phase="0" state="GGggrrrrGGggrrrr"/>
    <tlsState time="689.00" id="C0" programID="custom" phase="1" state="yyyyrrrryyyyrrrr"/>
    <tlsState time="692.00" id="C0" programID="custom" phase="2" state="rrrrGGggrrrrGGgg"/>
    <tlsState time="697.00" id="C0" programID="custom" phase="3" state="rrrryyyyrrrryyyy"/>
    <tlsState time="700.00" id="C0" programID="custom" phase="0" state="GGggrrrrGGggrrrr"/>
    <tlsState time="732.00" id="C0" programID="custom" phase="1" state="yyyyrrrryyyyrrrr"/>
    <tlsState time="735.00" id="C0" programID="custom" phase="2" state="rrrrGGggrrrrGGgg"/>
    <tlsState time="797.00" id="C0" programID="custom" phase="3" state="rrrryyyyrrrryyyy"/>
    <tlsState time="800.00" id="C0" programID="custom" phase="0" state="GGggrrrrGGggrrrr"/>
    <tlsState time="851.00" id="C0" programID="custom" phase="1" state="yyyyrrrryyyyrrrr"/>
    <tlsState time="854.00" id="C0" programID="custom" phase="2" state="rrrrGGggrrrrGGgg"/>
    <tlsState time="897.00" id="C0" programID="custom" phase="3" state="rrrryyyyrrrryyyy"/>
    <tlsState time="900.00" id="C0" programID="custom" phase="0" state="GGggrrrrGGggrrrr"/>
    <tlsState time="962.00" id="C0" programID="custom" phase="1" state="yyyyrrrryyyyrrrr"/>
    <tlsState time="965.00" id="C0" programID="custom" phase="2" state="rrrrGGggrrrrGGgg"/>
    <tlsState time="997.00" id="C0" programID="custom" phase="3" state="rrrryyyyrrrryyyy"/>
    <tlsState time="1000.00" id="C0" programID="custom" phase="0" state="GGggrrrrGGggrrrr"/>
    <tlsState time="1089.00" id="C0" programID="custom" phase="1" state="yyyyrrrryyyyrrrr"/>
    <tlsState time="1092.00" id="C0" programID="custom" phase="2" state="rrrrGGggrrrrGGgg"/>
    <tlsState time="1097.00" id="C0" programID="custom" phase="3" state="rrrryyyyrrrryyyy"/>
    <tlsState time="1100.00" id="C0" programID="custom" phase="0" state="GGggrrrrGGggrrrr"/>
    <tlsState time="1129.00" id="C0" programID="custom" phase="1" state="yyyyrrrryyyyrrrr"/>
    <tlsState time="1132.00" id="C0" programID="custom" phase="2" state="rrrrGGggrrrrGGgg"/>
    <tlsState time="1197.00" id="C0" programID="custom" phase="3" state="rrrryyyyrrrryyyy"/>
    <tlsState time="1200.00" id="C0" programID="custom" phase="0" state="GGggrrrrGGggrrrr"/>
    <tlsState time="1289.00" id="C0" programID="custom" phase="1" state="yyyyrrrryyyyrrrr"/>
    <tlsState time="1292.00" id="C0" programID="custom" phase="2" state="rrrrGGggrrrrGGgg"/>
    <tlsState time="1297.00" id="C0" programID="custom" phase="3" state="rrrryyyyrrrryyyy"/>
    <tlsState time="1300.00" id="C0" programID="custom" phase="0" state="GGggrrrrGGggrrrr"/>
    <tlsState time="1342.00" id="C0" programID="custom" phase="1" state="yyyyrrrryyyyrrrr"/>
    <tlsState time="1345.00" id="C0" programID="custom" phase="2" state="rrrrGGggrrrrGGgg"/>
    <tlsState time="1397.00" id="C0" programID="custom" phase="3" state="rrrryyyyrrrryyyy"/>
    <tlsState time="1400.00" id="C0" programID="custom" phase="0" state="GGggrrrrGGggrrrr"/>
    <tlsState time="1489.00" id="C0" programID="custom" phase="1" state="yyyyrrrryyyyrrrr"/>
    <tlsState time="1492.00" id="C0" programID="custom" phase="2" state="rrrrGGggrrrrGGgg"/>
    <tlsState time="1497.00" id="C0" programID="custom" phase="3" state="rrrryyyyrrrryyyy"/>
    <tlsState time="1500.00" id="C0" programID="custom" phase="0" state="GGggrrrrGGggrrrr"/>
    <tlsState time="1534.00" id="C0" programID="custom" phase="1" state="yyyyrrrryyyyrrrr"/>
    <tlsState time="1537.00" id="C0" programID="custom" phase="2" state="rrrrGGggrrrrGGgg"/>
    <tlsState time="1597.00" id="C0" programID="custom" phase="3" state="rrrryyyyrrrryyyy"/>
    <tlsState time="1600.00" id="C0" programID="custom" phase="0" state="GGggrrrrGGggrrrr"/>
    <tlsState time="1689.00" id="C0" programID="custom" phase="1" state="yyyyrrrryyyyrrrr"/>
    <tlsState time="1692.00" id="C0" programID="custom" phase="2" state="rrrrGGggrrrrGGgg"/>
    <tlsState time="1697.00" id="C0" programID="custom" phase="3" state="rrrryyyyrrrryyyy"/>
    <tlsState time="1700.00" id="C0" programID="custom" phase="0" state="GGggrrrrGGggrrrr"/>
    <tlsState time="1756.00" id="C0" programID="custom" phase="1" state="yyyyrrrryyyyrrrr"/>
    <tlsState time="1759.00" id="C0" programID="custom" phase="2" state="rrrrGGggrrrrGGgg"/>
    <tlsState time="1797.00" id="C0" programID="custom" phase="3" state="rrrryyyyrrrryyyy"/>
    <tlsState time="1800.00" id="C0" programID="custom" phase="0" state="GGggrrrrGGggrrrr"/>
    <tlsState time="1889.00" id="C0" programID="custom" phase="1" state="yyyyrrrryyyyrrrr"/>
    <tlsState time="1892.00" id="C0" programID="custom" phase="2" state="rrrrGGggrrrrGGgg"/>
    <tlsState time="1897.00" id="C0" programID="custom" phase="3" state="rrrryyyyrrrryyyy"/>
    <tlsState time="1900.00" id="C0" programID="custom" phase="0" state="GGggrrrrGGggrrrr"/>
    <tlsState time="1989.00" id="C0" programID="custom" phase="1" state="yyyyrrrryyyyrrrr"/>
    <tlsState time="1992.00" id="C0" programID="custom" phase="2" state="rrrrGGggrrrrGGgg"/>
    <tlsState time="1997.00" id="C0" programID="custom" phase="3" state="rrrryyyyrrrryyyy"/>
    <tlsState time="2000.00" id="C0" programID="custom" phase="0" state="GGggrrrrGGggrrrr"/>
    <tlsState time="2040.00" id="C0" programID="custom" phase="1" state="yyyyrrrryyyyrrrr"/>
    <tlsState time="2043.00" id="C0" programID="custom" phase="2" state="rrrrGGggrrrrGGgg"/>
    <tlsState time="2097.00" id="C0" programID="custom" phase="3" state="rrrryyyyrrrryyyy"/>
    <tlsState time="2100.00" id="C0" programID="custom" phase="0" state="GGggrrrrGGggrrrr"/>
    <tlsState time="2165.00" id="C0" programID="custom" phase="1" state="yyyyrrrryyyyrrrr"/>
    <tlsState time="2168.00" id="C0" programID="custom" phase="2" state="rrrrGGggrrrrGGgg"/>
    <tlsState time="2197.00" id="C0" programID="custom" phase="3" state="rrrryyyyrrrryyyy"/>
    <tlsState time="2200.00" id="C0" programID="custom" phase="0" state="GGggrrrrGGggrrrr"/>
    <tlsState time="2269.00" id="C0" programID="custom" phase="1" state="yyyyrrrryyyyrrrr"/>
    <tlsState time="2272.00" id="C0" programID="custom" phase="2" state="rrrrGGggrrrrGGgg"/>
    <tlsState time="2297.00" id="C0" programID="custom" phase="3" state="rrrryyyyrrrryyyy"/>
    <tlsState time="2300.00" id="C0" programID="custom" phase="0" state="GGggrrrrGGggrrrr"/>
    <tlsState time="2356.00" id="C0" programID="custom" phase="1" state="yyyyrrrryyyyrrrr"/>
    <tlsState time="2359.00" id="C0" programID="custom" phase="2" state="rrrrGGggrrrrGGgg"/>
    <tlsState time="2397.00" id="C0" programID="custom" phase="3" state="rrrryyyyrrrryyyy"/>
    <tlsState time="2400.00" id="C0" programID="custom" phase="0" state="GGggrrrrGGggrrrr"/>
    <tlsState time="2489.00" id="C0" programID="custom" phase="1" state="yyyyrrrryyyyrrrr"/>
    <tlsState time="2492.00" id="C0" programID="custom" phase="2" state="rrrrGGggrrrrGGgg"/>
    <tlsState time="2497.00" id="C0" programID="custom" phase="3" state="rrrryyyyrrrryyyy"/>
    <tlsState time="2500.00" id="C0" programID="custom" phase="0" state="GGggrrrrGGggrrrr"/>
    <tlsState time="2565.00" id="C0" programID="custom" phase="1" state="yyyyrrrryyyyrrrr"/>
    <tlsState time="2568.00" id="C0" programID="custom" phase="2" state="rrrrGGggrrrrGGgg"/>
    <tlsState time="2597.00" id="C0" programID="custom" phase="3" state="rrrryyyyrrrryyyy"/>
    <tlsState time="2600.00" id="C0" programID="custom" phase="0" state="GGggrrrrGGggrrrr"/>
    <tlsState time="2671.00" id="C0" programID="custom" phase="1" state="yyyyrrrryyyyrrrr"/>
    <tlsState time="2674.00" id="C0" programID="custom" phase="2" state="rrrrGGggrrrrGGgg"/>
    <tlsState time="2697.00" id="C0" programID="custom" phase="3" state="rrrryyyyrrrryyyy"/>
    <tlsState time="2700.00" id="C0" programID="custom" phase="0" state="GGggrrrrGGggrrrr"/>
    <tlsState time="2759.00" id="C0" programID="custom" phase="1" state="yyyyrrrryyyyrrrr"/>
    <tlsState time="2762.00" id="C0" programID="custom" phase="2" state="rrrrGGggrrrrGGgg"/>
    <tlsState time="2797.00" id="C0" programID="custom" phase="3" state="rrrryyyyrrrryyyy"/>
    <tlsState time="2800.00" id="C0" programID="custom" phase="0" state="GGggrrrrGGggrrrr"/>
    <tlsState time="2881.00" id="C0" programID="custom" phase="1" state="yyyyrrrryyyyrrrr"/>
    <tlsState time="2884.00" id="C0" programID="custom" phase="2" state="rrrrGGggrrrrGGgg"/>
    <tlsState time="2897.00" id="C0" programID="custom" phase="3" state="rrrryyyyrrrryyyy"/>
    <tlsState time="2900.00" id="C0" programID="custom" phase="0" state="GGggrrrrGGggrrrr"/>
    <tlsState time="2968.00" id="C0" programID="custom" phase="1" state="yyyyrrrryyyyrrrr"/>
    <tlsState time="2971.00" id="C0" programID="custom" phase="2" state="rrrrGGggrrrrGGgg"/>
    <tlsState time="2997.00" id="C0" programID="custom" phase="3" state="rrrryyyyrrrryyyy"/>
    <tlsState time="3000.00" id="C0" programID="custom" phase="0" state="GGggrrrrGGggrrrr"/>
    <tlsState time="3089.00" id="C0" programID="custom" phase="1" state="yyyyrrrryyyyrrrr"/>
    <tlsState time="3092.00" id="C0" programID="custom" phase="2" state="rrrrGGggrrrrGGgg"/>
    <tlsState time="3097.00" id="C0" programID="custom" phase="3" state="rrrryyyyrrrryyyy"/>
    <tlsState time="3100.00" id="C0" programID="custom" phase="0" state="GGggrrrrGGggrrrr"/>
    <tlsState time="3126.00" id="C0" programID="custom" phase="1" state="yyyyrrrryyyyrrrr"/>
    <tlsState time="3129.00" id="C0" programID="custom" phase="2" state="rrrrGGggrrrrGGgg"/>
    <tlsState time="3197.00" id="C0" programID="custom" phase="3" state="rrrryyyyrrrryyyy"/>
    <tlsState time="3200.00" id="C0" programID="custom" phase="0" state="GGggrrrrGGggrrrr"/>
    <tlsState time="3254.00" id="C0" programID="custom" phase="1" state="yyyyrrrryyyyrrrr"/>
    <tlsState time="3257.00" id="C0" programID="custom" phase="2" state="rrrrGGggrrrrGGgg"/>
    <tlsState time="3297.00" id="C0" programID="custom" phase="3" state="rrrryyyyrrrryyyy"/>
    <tlsState time="3300.00" id="C0" programID="custom" phase="0" state="GGggrrrrGGggrrrr"/>
    <tlsState time="3363.00" id="C0" programID="custom" phase="1" state="yyyyrrrryyyyrrrr"/>
    <tlsState time="3366.00" id="C0" programID="custom" phase="2" state="rrrrGGggrrrrGGgg"/>
    <tlsState time="3397.00" id="C0" programID="custom" phase="3" state="rrrryyyyrrrryyyy"/>
    <tlsState time="3400.00" id="C0" programID="custom" phase="0" state="GGggrrrrGGggrrrr"/>
    <tlsState time="3489.00" id="C0" programID="custom" phase="1" state="yyyyrrrryyyyrrrr"/>
    <tlsState time="3492.00" id="C0" programID="custom" phase="2" state="rrrrGGggrrrrGGgg"/>
    <tlsState time="3497.00" id="C0" programID="custom" phase="3" state="rrrryyyyrrrryyyy"/>
    <tlsState time="3500.00" id="C0" programID="custom" phase="0" state="GGggrrrrGGggrrrr"/>
    <tlsState time="3547.00" id="C0" programID="custom" phase="1" state="yyyyrrrryyyyrrrr"/>
    <tlsState time="3550.00" id="C0" programID="custom" phase="2" state="rrrrGGggrrrrGGgg"/>
    <tlsState time="3597.00" id="C0" programID="custom" phase="3" state="rrrryyyyrrrryyyy"/>
    <tlsState time="3600.00" id="C0" programID="custom" phase="0" state="GGggrrrrGGggrrrr"/>
    <tlsState time="3676.00" id="C0" programID="custom" phase="1" state="yyyyrrrryyyyrrrr"/>
    <tlsState time="3679.00" id="C0" programID="custom" phase="2" state="rrrrGGggrrrrGGgg"/>
</tlsStates>
