<?xml version="1.0" encoding="UTF-8"?>

<!-- generated on 2023-03-12 15:17:39 by Eclipse SUMO netconvert Version v1_16_0+1182-4551d6da827
<configuration xmlns:xsi="http://www.w3.org/2001/XMLSchema-instance" xsi:noNamespaceSchemaLocation="http://sumo.dlr.de/xsd/netconvertConfiguration.xsd">

    <input>
        <sumo-net-file value="input_net.net.xml"/>
        <node-files value="net.nod.xml"/>
        <edge-files value="net.edg.xml"/>
    </input>

    <output>
        <output-file value="net.net.xml"/>
        <output.street-names value="true"/>
    </output>

    <processing>
        <geometry.min-radius.fix.railways value="false"/>
        <geometry.max-grade.fix value="false"/>
        <offset.disable-normalization value="true"/>
        <lefthand value="0"/>
    </processing>

    <junctions>
        <no-turnarounds value="true"/>
        <junctions.corner-detail value="0"/>
        <junctions.limit-turn-speed value="5.50"/>
        <rectangular-lane-cut value="0"/>
    </junctions>

    <pedestrian>
        <walkingareas value="0"/>
    </pedestrian>

</configuration>
-->

<net version="1.16" limitTurnSpeed="5.50" xmlns:xsi="http://www.w3.org/2001/XMLSchema-instance" xsi:noNamespaceSchemaLocation="http://sumo.dlr.de/xsd/net_file.xsd">

    <location netOffset="-339139.35,-5788711.14" convBoundary="-7539.82,0.00,9486.74,280.00" origBoundary="12.635011,52.237972,14.221191,52.746091" projParameter="+proj=utm +zone=33 +ellps=WGS84 +datum=WGS84 +units=m +no_defs"/>

    <type id="highway.bridleway" priority="1" numLanes="1" speed="2.78" allow="pedestrian" oneway="1" width="2.00"/>
    <type id="highway.bus_guideway" priority="1" numLanes="1" speed="27.78" allow="bus" oneway="1"/>
    <type id="highway.cycleway" priority="1" numLanes="1" speed="5.56" allow="bicycle" oneway="0" width="1.00"/>
    <type id="highway.footway" priority="1" numLanes="1" speed="2.78" allow="pedestrian" oneway="1" width="2.00"/>
    <type id="highway.ford" priority="1" numLanes="1" speed="2.78" allow="army" oneway="0"/>
    <type id="highway.living_street" priority="2" numLanes="1" speed="2.78" disallow="tram rail_urban rail rail_electric rail_fast ship" oneway="0"/>
    <type id="highway.motorway" priority="14" numLanes="2" speed="39.44" allow="private emergency authority army vip passenger hov taxi bus coach delivery truck trailer motorcycle evehicle custom1 custom2" oneway="1"/>
    <type id="highway.motorway_link" priority="9" numLanes="1" speed="22.22" allow="private emergency authority army vip passenger hov taxi bus coach delivery truck trailer motorcycle evehicle custom1 custom2" oneway="1"/>
    <type id="highway.path" priority="1" numLanes="1" speed="5.56" allow="pedestrian bicycle" oneway="0" width="2.00"/>
    <type id="highway.pedestrian" priority="1" numLanes="1" speed="2.78" allow="pedestrian" oneway="1" width="2.00"/>
    <type id="highway.primary" priority="12" numLanes="2" speed="27.78" disallow="tram rail_urban rail rail_electric rail_fast ship" oneway="0"/>
    <type id="highway.primary_link" priority="7" numLanes="1" speed="22.22" disallow="tram rail_urban rail rail_electric rail_fast ship" oneway="0"/>
    <type id="highway.raceway" priority="15" numLanes="2" speed="83.33" allow="vip" oneway="0"/>
    <type id="highway.residential" priority="3" numLanes="1" speed="13.89" disallow="tram rail_urban rail rail_electric rail_fast ship" oneway="0"/>
    <type id="highway.secondary" priority="11" numLanes="1" speed="27.78" disallow="tram rail_urban rail rail_electric rail_fast ship" oneway="0"/>
    <type id="highway.secondary_link" priority="6" numLanes="1" speed="22.22" disallow="tram rail_urban rail rail_electric rail_fast ship" oneway="0"/>
    <type id="highway.service" priority="1" numLanes="1" speed="5.56" allow="pedestrian delivery bicycle" oneway="0"/>
    <type id="highway.service|railway.tram" priority="17" numLanes="1" speed="13.89" allow="pedestrian delivery bicycle tram" oneway="0"/>
    <type id="highway.stairs" priority="1" numLanes="1" speed="1.39" allow="pedestrian" oneway="1" width="2.00"/>
    <type id="highway.step" priority="1" numLanes="1" speed="1.39" allow="pedestrian" oneway="1" width="2.00"/>
    <type id="highway.steps" priority="1" numLanes="1" speed="1.39" allow="pedestrian" oneway="1" width="2.00"/>
    <type id="highway.tertiary" priority="10" numLanes="1" speed="22.22" disallow="tram rail_urban rail rail_electric rail_fast ship" oneway="0"/>
    <type id="highway.tertiary_link" priority="5" numLanes="1" speed="22.22" disallow="tram rail_urban rail rail_electric rail_fast ship" oneway="0"/>
    <type id="highway.track" priority="1" numLanes="1" speed="5.56" allow="pedestrian motorcycle moped bicycle" oneway="0"/>
    <type id="highway.trunk" priority="13" numLanes="2" speed="27.78" disallow="pedestrian bicycle tram rail_urban rail rail_electric rail_fast ship" oneway="0"/>
    <type id="highway.trunk_link" priority="8" numLanes="1" speed="22.22" disallow="pedestrian bicycle tram rail_urban rail rail_electric rail_fast ship" oneway="0"/>
    <type id="highway.unclassified" priority="4" numLanes="1" speed="13.89" disallow="tram rail_urban rail rail_electric rail_fast ship" oneway="0"/>
    <type id="highway.unsurfaced" priority="1" numLanes="1" speed="8.33" disallow="tram rail_urban rail rail_electric rail_fast ship" oneway="0"/>
    <type id="railway.highspeed" priority="21" numLanes="1" speed="69.44" allow="rail_fast" oneway="1"/>
    <type id="railway.light_rail" priority="19" numLanes="1" speed="27.78" allow="rail_urban" oneway="1"/>
    <type id="railway.light_rail|usage.branch" priority="19" numLanes="1" speed="27.78" allow="rail_urban" oneway="1"/>
    <type id="railway.light_rail|usage.main" priority="19" numLanes="1" speed="27.78" allow="rail_urban" oneway="1"/>
    <type id="railway.preserved" priority="16" numLanes="1" speed="27.78" allow="rail" oneway="1"/>
    <type id="railway.rail" priority="20" numLanes="1" speed="44.44" allow="rail" oneway="1"/>
    <type id="railway.rail|usage.branch" priority="20" numLanes="1" speed="44.44" allow="rail" oneway="1"/>
    <type id="railway.rail|usage.industrial" priority="20" numLanes="1" speed="44.44" allow="rail" oneway="1"/>
    <type id="railway.rail|usage.main" priority="20" numLanes="1" speed="44.44" allow="rail" oneway="1"/>
    <type id="railway.rail|usage.test" priority="20" numLanes="1" speed="44.44" allow="rail" oneway="1"/>
    <type id="railway.subway" priority="18" numLanes="1" speed="27.78" allow="rail_urban" oneway="1"/>
    <type id="railway.subway|usage.branch" priority="18" numLanes="1" speed="27.78" allow="rail_urban" oneway="1"/>
    <type id="railway.subway|usage.main" priority="18" numLanes="1" speed="27.78" allow="rail_urban" oneway="1"/>
    <type id="railway.tram" priority="17" numLanes="1" speed="13.89" allow="tram" oneway="1"/>
    <type id="railway.tram|usage.main" priority="17" numLanes="1" speed="13.89" allow="tram" oneway="1"/>
    <type id="usage.branch" disallow="all" oneway="1"/>
    <type id="usage.industrial" disallow="all" oneway="1"/>
    <type id="usage.main" disallow="all" oneway="1"/>
    <type id="usage.military" disallow="all" oneway="1"/>
    <type id="usage.test" disallow="all" oneway="1"/>
    <type id="usage.tourism" disallow="all" oneway="1"/>

    <edge id=":1383487001_0" function="internal">
        <lane id=":1383487001_0_0" index="0" allow="rail rail_electric rail_fast" speed="0.10" length="0.10" shape="-1245.34,40.00 -1245.34,40.00"/>
    </edge>
    <edge id=":1383487016_0" function="internal">
        <lane id=":1383487016_0_0" index="0" allow="rail" speed="44.44" length="7.53" shape="-962.97,40.00 -955.45,40.00"/>
    </edge>
    <edge id=":1383487016_1" function="internal">
        <lane id=":1383487016_1_0" index="0" allow="rail rail_electric rail_fast" speed="15.20" length="7.19" shape="-962.97,40.00 -961.79,40.24 -960.40,40.95 -958.81,42.13 -957.02,43.79"/>
    </edge>
    <edge id=":1383487022_0" function="internal">
        <lane id=":1383487022_0_0" index="0" allow="rail rail_fast" speed="15.42" length="7.40" shape="-810.09,160.00 -808.02,159.76 -806.73,159.04 -805.63,157.85 -804.14,156.21"/>
    </edge>
    <edge id=":1383487022_1" function="internal">
        <lane id=":1383487022_1_0" index="0" allow="rail rail_fast" speed="63.89" length="7.53" shape="-810.09,160.00 -802.57,160.00"/>
    </edge>
    <edge id=":1383487026_0" function="internal">
        <lane id=":1383487026_0_0" index="0" allow="rail rail_electric rail_fast" speed="0.10" length="0.10" shape="-769.62,120.00 -769.62,120.00"/>
    </edge>
    <edge id=":1383487041_0" function="internal">
        <lane id=":1383487041_0_0" index="0" allow="rail rail_electric rail_fast" speed="36.11" length="7.53" shape="-713.17,120.00 -705.65,120.00"/>
    </edge>
    <edge id=":1383487041_1" function="internal">
        <lane id=":1383487041_1_0" index="0" allow="rail rail_electric rail_fast" speed="15.20" length="7.19" shape="-711.60,123.79 -709.81,122.13 -708.22,120.95 -706.83,120.24 -705.65,120.00"/>
    </edge>
    <edge id=":1383487095_0" function="internal">
        <lane id=":1383487095_0_0" index="0" allow="rail" speed="5.03" length="6.64" shape="-563.73,56.21 -565.05,57.87 -565.23,59.05 -564.27,59.76 -562.16,60.00"/>
    </edge>
    <edge id=":1383487095_1" function="internal">
        <lane id=":1383487095_1_0" index="0" allow="rail" speed="15.20" length="7.19" shape="-569.68,60.00 -568.50,59.76 -567.11,59.05 -565.52,57.87 -563.73,56.21"/>
    </edge>
    <edge id=":1383487095_2" function="internal">
        <lane id=":1383487095_2_0" index="0" allow="rail rail_electric rail_fast" speed="44.44" length="7.53" shape="-569.68,60.00 -562.16,60.00"/>
    </edge>
    <edge id=":1383487116_0" function="internal">
        <lane id=":1383487116_0_0" index="0" allow="rail rail_electric rail_fast" speed="44.44" length="7.53" shape="-519.61,60.00 -512.09,60.00"/>
    </edge>
    <edge id=":1383487122_0" function="internal">
        <lane id=":1383487122_0_0" index="0" allow="rail rail_electric rail_fast" speed="5.03" length="6.64" shape="-477.87,60.00 -479.98,59.76 -480.94,59.05 -480.76,57.87 -479.44,56.21"/>
    </edge>
    <edge id=":1383487122_1" function="internal">
        <lane id=":1383487122_1_0" index="0" allow="rail rail_electric rail_fast" speed="15.20" length="7.19" shape="-485.39,60.00 -484.21,59.76 -482.82,59.05 -481.23,57.87 -479.44,56.21"/>
    </edge>
    <edge id=":1383487122_2" function="internal">
        <lane id=":1383487122_2_0" index="0" allow="rail rail_electric rail_fast" speed="44.44" length="7.53" shape="-485.39,60.00 -477.87,60.00"/>
    </edge>
    <edge id=":1383487142_0" function="internal">
        <lane id=":1383487142_0_0" index="0" allow="rail rail_fast" speed="15.20" length="7.19" shape="-356.92,203.79 -358.71,202.13 -360.30,200.95 -361.69,200.24 -362.87,200.00"/>
    </edge>
    <edge id=":1383487142_1" function="internal">
        <lane id=":1383487142_1_0" index="0" allow="rail rail_fast" speed="40.28" length="7.53" shape="-355.35,200.00 -362.87,200.00"/>
    </edge>
    <edge id=":1383487144_0" function="internal" bidi=":1383487144_1">
        <lane id=":1383487144_0_0" index="0" allow="rail rail_electric rail_fast" speed="5.03" length="6.64" shape="-434.50,40.00 -436.61,39.76 -437.57,39.05 -437.39,37.87 -436.07,36.21"/>
    </edge>
    <edge id=":1383487144_1" function="internal" bidi=":1383487144_0">
        <lane id=":1383487144_1_0" index="0" allow="rail rail_electric rail_fast" speed="5.03" length="6.64" shape="-436.07,36.21 -437.39,37.87 -437.57,39.05 -436.61,39.76 -434.50,40.00"/>
    </edge>
    <edge id=":1383487144_2" function="internal">
        <lane id=":1383487144_2_0" index="0" allow="rail rail_electric rail_fast" speed="15.20" length="7.19" shape="-442.02,40.00 -440.84,39.76 -439.45,39.05 -437.86,37.87 -436.07,36.21"/>
    </edge>
    <edge id=":1383487144_3" function="internal">
        <lane id=":1383487144_3_0" index="0" allow="rail rail_electric rail_fast" speed="44.44" length="7.53" shape="-442.02,40.00 -434.50,40.00"/>
    </edge>
    <edge id=":1383487147_0" function="internal">
        <lane id=":1383487147_0_0" index="0" allow="rail rail_electric rail_fast" speed="44.44" length="7.53" shape="-408.07,80.00 -415.59,80.00"/>
    </edge>
    <edge id=":1383487149_0" function="internal">
        <lane id=":1383487149_0_0" index="0" allow="rail rail_fast" speed="15.20" length="7.19" shape="-364.79,160.00 -363.61,159.76 -362.22,159.05 -360.63,157.87 -358.84,156.21"/>
    </edge>
    <edge id=":1383487149_1" function="internal">
        <lane id=":1383487149_1_0" index="0" allow="rail rail_fast" speed="40.28" length="7.53" shape="-364.79,160.00 -357.27,160.00"/>
    </edge>
    <edge id=":1383487189_0" function="internal">
        <lane id=":1383487189_0_0" index="0" allow="rail rail_electric rail_fast" speed="15.20" length="7.19" shape="-280.60,176.21 -278.81,177.87 -277.22,179.05 -275.83,179.76 -274.65,180.00"/>
    </edge>
    <edge id=":1383487192_0" function="internal">
        <lane id=":1383487192_0_0" index="0" allow="rail rail_electric rail_fast" speed="15.20" length="7.19" shape="-272.37,120.00 -271.19,119.76 -269.80,119.05 -268.21,117.87 -266.42,116.21"/>
    </edge>
    <edge id=":1383487192_1" function="internal">
        <lane id=":1383487192_1_0" index="0" allow="rail rail_electric rail_fast" speed="27.78" length="7.53" shape="-272.37,120.00 -264.85,120.00"/>
    </edge>
    <edge id=":1383487194_0" function="internal">
        <lane id=":1383487194_0_0" index="0" allow="rail rail_electric rail_fast" speed="16.67" length="7.53" shape="-227.03,180.00 -219.51,180.00"/>
    </edge>
    <edge id=":1383487200_0" function="internal">
        <lane id=":1383487200_0_0" index="0" allow="rail rail_electric rail_fast" speed="19.45" length="0.10" shape="-191.85,180.00 -191.85,180.00"/>
    </edge>
    <edge id=":1383487280_0" function="internal">
        <lane id=":1383487280_0_0" index="0" allow="rail rail_electric rail_fast" speed="0.10" length="0.10" shape="26.51,20.00 26.51,20.00"/>
    </edge>
    <edge id=":1383487286_0" function="internal">
        <lane id=":1383487286_0_0" index="0" allow="rail rail_electric rail_fast" speed="0.10" length="0.10" shape="77.38,60.00 77.38,60.00"/>
    </edge>
    <edge id=":1383487287_0" function="internal">
        <lane id=":1383487287_0_0" index="0" allow="rail rail_electric rail_fast" speed="0.10" length="0.10" shape="74.76,40.00 74.76,40.00"/>
    </edge>
    <edge id=":1383487304_0" function="internal">
        <lane id=":1383487304_0_0" index="0" allow="rail rail_electric rail_fast" speed="22.23" length="0.10" shape="204.86,120.00 204.86,120.00"/>
    </edge>
    <edge id=":1383487311_0" function="internal">
        <lane id=":1383487311_0_0" index="0" allow="rail rail_electric rail_fast" speed="15.20" length="7.19" shape="264.29,180.00 265.47,179.76 266.86,179.05 268.45,177.87 270.24,176.21"/>
    </edge>
    <edge id=":1383487311_1" function="internal">
        <lane id=":1383487311_1_0" index="0" allow="rail rail_electric rail_fast" speed="19.45" length="7.53" shape="264.29,180.00 271.81,180.00"/>
    </edge>
    <edge id=":1383487338_0" function="internal">
        <lane id=":1383487338_0_0" index="0" allow="rail rail_electric rail_fast" speed="15.20" length="7.19" shape="313.59,116.21 315.38,117.87 316.97,119.05 318.36,119.76 319.54,120.00"/>
    </edge>
    <edge id=":1383487338_1" function="internal">
        <lane id=":1383487338_1_0" index="0" allow="rail rail_electric rail_fast" speed="16.67" length="7.53" shape="312.02,120.00 319.54,120.00"/>
    </edge>
    <edge id=":1383487342_0" function="internal">
        <lane id=":1383487342_0_0" index="0" allow="rail rail_electric rail_fast" speed="5.03" length="6.64" shape="379.87,180.00 377.76,180.24 376.80,180.95 376.98,182.13 378.30,183.79"/>
    </edge>
    <edge id=":1383487342_1" function="internal">
        <lane id=":1383487342_1_0" index="0" allow="rail rail_electric rail_fast" speed="30.55" length="7.53" shape="372.35,180.00 379.87,180.00"/>
    </edge>
    <edge id=":1383487342_2" function="internal">
        <lane id=":1383487342_2_0" index="0" allow="rail rail_electric rail_fast" speed="15.20" length="7.19" shape="372.35,180.00 373.53,180.24 374.92,180.95 376.51,182.13 378.30,183.79"/>
    </edge>
    <edge id=":1383487364_0" function="internal">
        <lane id=":1383487364_0_0" index="0" allow="rail rail_fast" speed="15.20" length="7.19" shape="392.04,156.21 393.83,157.87 395.42,159.05 396.81,159.76 397.99,160.00"/>
    </edge>
    <edge id=":1383487364_1" function="internal">
        <lane id=":1383487364_1_0" index="0" allow="rail rail_fast" speed="43.05" length="7.53" shape="390.47,160.00 397.99,160.00"/>
    </edge>
    <edge id=":1383487368_0" function="internal">
        <lane id=":1383487368_0_0" index="0" allow="rail rail_electric rail_fast" speed="0.10" length="0.10" shape="427.78,180.00 427.78,180.00"/>
    </edge>
    <edge id=":1383487378_0" function="internal">
        <lane id=":1383487378_0_0" index="0" allow="rail rail_electric rail_fast" speed="16.67" length="7.53" shape="408.91,120.00 416.43,120.00"/>
    </edge>
    <edge id=":1383487386_0" function="internal">
        <lane id=":1383487386_0_0" index="0" allow="rail rail_fast" speed="63.89" length="7.53" shape="473.11,198.47 467.79,203.79"/>
    </edge>
    <edge id=":1383487387_0" function="internal">
        <lane id=":1383487387_0_0" index="0" allow="rail rail_electric rail_fast" speed="30.55" length="7.53" shape="428.03,120.00 435.55,120.00"/>
    </edge>
    <edge id=":1383487387_1" function="internal">
        <lane id=":1383487387_1_0" index="0" allow="rail rail_electric rail_fast" speed="15.20" length="7.19" shape="428.03,120.00 429.21,120.24 430.60,120.95 432.19,122.13 433.98,123.79"/>
    </edge>
    <edge id=":1383487393_0" function="internal">
        <lane id=":1383487393_0_0" index="0" allow="rail rail_fast" speed="15.42" length="7.40" shape="545.55,156.21 547.04,157.85 548.14,159.04 549.43,159.76 551.50,160.00"/>
    </edge>
    <edge id=":1383487393_1" function="internal">
        <lane id=":1383487393_1_0" index="0" allow="rail rail_fast" speed="63.89" length="7.53" shape="543.98,160.00 551.50,160.00"/>
    </edge>
    <edge id=":1383499632_0" function="internal">
        <lane id=":1383499632_0_0" index="0" allow="rail rail_electric rail_fast" speed="15.20" length="7.19" shape="456.33,120.00 457.51,119.76 458.90,119.05 460.49,117.87 462.28,116.21"/>
    </edge>
    <edge id=":1383499632_1" function="internal">
        <lane id=":1383499632_1_0" index="0" allow="rail rail_electric rail_fast" speed="44.44" length="7.53" shape="456.33,120.00 463.85,120.00"/>
    </edge>
    <edge id=":1383506146_0" function="internal">
        <lane id=":1383506146_0_0" index="0" allow="rail" speed="11.75" length="6.71" shape="-271.56,243.77 -273.05,242.12 -274.44,240.94 -275.72,240.24 -276.90,240.00"/>
    </edge>
    <edge id=":1383506146_1" function="internal">
        <lane id=":1383506146_1_0" index="0" allow="rail" speed="44.44" length="7.13" shape="-269.77,240.00 -276.90,240.00"/>
    </edge>
    <edge id=":1383506147_0" function="internal">
        <lane id=":1383506147_0_0" index="0" allow="rail" speed="15.42" length="7.40" shape="-238.25,263.79 -239.74,262.15 -240.84,260.96 -242.13,260.24 -244.20,260.00"/>
    </edge>
    <edge id=":1383506147_1" function="internal">
        <lane id=":1383506147_1_0" index="0" allow="rail" speed="44.44" length="7.53" shape="-236.68,260.00 -244.20,260.00"/>
    </edge>
    <edge id=":1383506183_0" function="internal">
        <lane id=":1383506183_0_0" index="0" allow="rail" speed="0.10" length="0.10" shape="14.08,280.00 14.08,280.00"/>
    </edge>
    <edge id=":258058797_0" function="internal">
        <lane id=":258058797_0_0" index="0" allow="rail" speed="15.20" length="7.19" shape="-313.62,240.00 -314.80,240.24 -316.19,240.95 -317.78,242.13 -319.57,243.79"/>
    </edge>
    <edge id=":258058797_1" function="internal">
        <lane id=":258058797_1_0" index="0" allow="rail" speed="44.44" length="7.53" shape="-313.62,240.00 -321.14,240.00"/>
    </edge>
    <edge id=":258059584_0" function="internal">
        <lane id=":258059584_0_0" index="0" allow="rail" speed="44.44" length="3.00" shape="-1179.32,260.00 -1182.32,260.00"/>
    </edge>
    <edge id=":258059584_1" function="internal">
        <lane id=":258059584_1_0" index="0" allow="rail" speed="0.10" length="0.10" shape="-1182.32,260.00 -1182.32,260.00"/>
    </edge>
    <edge id=":258060309_0" function="internal">
        <lane id=":258060309_0_0" index="0" allow="rail" speed="15.20" length="7.19" shape="22.79,240.00 21.61,240.24 20.22,240.95 18.63,242.13 16.84,243.79"/>
    </edge>
    <edge id=":258060309_1" function="internal">
        <lane id=":258060309_1_0" index="0" allow="rail" speed="44.44" length="7.53" shape="22.79,240.00 15.27,240.00"/>
    </edge>
    <edge id=":2990793443_0" function="internal">
        <lane id=":2990793443_0_0" index="0" allow="rail rail_fast" speed="63.89" length="3.00" shape="1240.91,160.00 1243.91,160.00"/>
    </edge>
    <edge id=":2990793443_1" function="internal">
        <lane id=":2990793443_1_0" index="0" allow="rail rail_fast" speed="54.16" length="3.00" shape="1240.91,160.00 1243.91,160.00"/>
    </edge>
    <edge id=":2990793444_0" function="internal">
        <lane id=":2990793444_0_0" index="0" allow="rail rail_fast" speed="63.89" length="7.53" shape="1375.13,180.00 1367.61,180.00"/>
    </edge>
    <edge id=":3056403714_0" function="internal">
        <lane id=":3056403714_0_0" index="0" allow="rail rail_fast" speed="63.89" length="0.10" shape="-1466.12,180.00 -1466.12,180.00"/>
    </edge>
    <edge id=":3269669673_0" function="internal">
        <lane id=":3269669673_0_0" index="0" allow="rail" speed="0.10" length="0.10" shape="-58.43,0.00 -58.43,0.00"/>
    </edge>
    <edge id=":3692318838_0" function="internal">
        <lane id=":3692318838_0_0" index="0" allow="rail" speed="44.44" length="7.53" shape="-1521.35,220.00 -1513.83,220.00"/>
    </edge>
    <edge id=":3692318838_1" function="internal">
        <lane id=":3692318838_1_0" index="0" allow="rail" speed="15.42" length="7.40" shape="-1521.35,220.00 -1519.28,220.24 -1517.99,220.96 -1516.89,222.15 -1515.40,223.79"/>
    </edge>
    <edge id=":3692318843_0" function="internal">
        <lane id=":3692318843_0_0" index="0" allow="rail" speed="0.10" length="0.10" shape="-1341.57,260.00 -1341.57,260.00"/>
    </edge>
    <edge id=":3692318844_0" function="internal">
        <lane id=":3692318844_0_0" index="0" allow="rail" speed="0.10" length="0.10" shape="-1601.93,220.00 -1601.93,220.00"/>
    </edge>
    <edge id=":4078624344_0" function="internal">
        <lane id=":4078624344_0_0" index="0" allow="rail" speed="15.42" length="7.40" shape="-1170.94,236.21 -1169.45,237.85 -1168.35,239.04 -1167.06,239.76 -1164.99,240.00"/>
    </edge>
    <edge id=":4078624344_1" function="internal">
        <lane id=":4078624344_1_0" index="0" allow="rail" speed="44.44" length="7.53" shape="-1172.51,240.00 -1164.99,240.00"/>
    </edge>
    <edge id=":4078624345_0" function="internal">
        <lane id=":4078624345_0_0" index="0" allow="rail" speed="44.44" length="7.53" shape="-1113.05,260.00 -1120.57,260.00"/>
    </edge>
    <edge id=":4078624347_0" function="internal">
        <lane id=":4078624347_0_0" index="0" allow="rail rail_fast" speed="15.42" length="7.40" shape="-960.32,183.79 -961.81,182.15 -962.91,180.96 -964.20,180.24 -966.27,180.00"/>
    </edge>
    <edge id=":4078624347_1" function="internal">
        <lane id=":4078624347_1_0" index="0" allow="rail rail_fast" speed="45.84" length="7.53" shape="-958.75,180.00 -966.27,180.00"/>
    </edge>
    <edge id=":566337733_0" function="internal">
        <lane id=":566337733_0_0" index="0" allow="rail rail_electric rail_fast" speed="15.20" length="7.19" shape="-580.61,120.00 -579.43,119.76 -578.04,119.05 -576.45,117.87 -574.66,116.21"/>
    </edge>
    <edge id=":566337733_1" function="internal">
        <lane id=":566337733_1_0" index="0" allow="rail rail_electric rail_fast" speed="27.78" length="7.53" shape="-580.61,120.00 -573.09,120.00"/>
    </edge>
    <edge id=":566337751_0" function="internal">
        <lane id=":566337751_0_0" index="0" allow="rail rail_fast" speed="63.89" length="7.53" shape="-823.78,160.00 -816.26,160.00"/>
    </edge>

    <edge id="-124262109#0" from="1383487016" to="1383487001" priority="20" type="railway.rail" spreadType="center" length="282.96" bidi="124262109#0">
        <lane id="-124262109#0_0" index="0" allow="rail rail_electric rail_fast" speed="44.44" length="282.96" shape="-962.97,40.00 -1245.34,40.00">
            <param key="origId" value="124262109"/>
        </lane>
        <param key="electrified" value="contact_line"/>
        <param key="frequency" value="16.7"/>
        <param key="gauge" value="1435"/>
        <param key="operator" value="DB Netz AG"/>
        <param key="railway" value="rail"/>
        <param key="railway:etcs" value="no"/>
        <param key="railway:gnt" value="no"/>
        <param key="railway:lzb" value="no"/>
        <param key="railway:pzb" value="no"/>
        <param key="service" value="yard"/>
        <param key="voltage" value="15000"/>
        <param key="workrules" value="DE:EBO"/>
    </edge>
    <edge id="-124262115" from="1383487368" to="1383487342" priority="20" type="railway.rail" spreadType="center" length="51.88" bidi="124262115">
        <lane id="-124262115_0" index="0" allow="rail rail_electric rail_fast" speed="44.44" length="51.88" shape="427.78,180.00 379.87,180.00">
            <param key="origId" value="124262115"/>
        </lane>
        <param key="electrified" value="contact_line"/>
        <param key="frequency" value="16.7"/>
        <param key="gauge" value="1435"/>
        <param key="operator" value="DB Netz AG"/>
        <param key="railway" value="rail"/>
        <param key="railway:etcs" value="no"/>
        <param key="railway:gnt" value="no"/>
        <param key="railway:lzb" value="no"/>
        <param key="railway:pzb" value="no"/>
        <param key="service" value="yard"/>
        <param key="voltage" value="15000"/>
        <param key="workrules" value="DE:EBO"/>
    </edge>
    <edge id="-124262120" from="1383487026" to="1383487041" priority="20" type="railway.rail" spreadType="center" length="17.76" bidi="124262120">
        <lane id="-124262120_0" index="0" allow="rail rail_electric rail_fast" speed="44.44" length="17.76" shape="-769.62,120.00 -713.17,120.00">
            <param key="origId" value="124262120"/>
        </lane>
        <param key="electrified" value="contact_line"/>
        <param key="frequency" value="16.7"/>
        <param key="gauge" value="1435"/>
        <param key="operator" value="DB Netz AG"/>
        <param key="railway" value="rail"/>
        <param key="railway:etcs" value="no"/>
        <param key="railway:gnt" value="no"/>
        <param key="railway:lzb" value="no"/>
        <param key="railway:pzb" value="no"/>
        <param key="service" value="yard"/>
        <param key="voltage" value="15000"/>
        <param key="workrules" value="DE:EBO"/>
    </edge>
    <edge id="-124262124" from="3269669673" to="1383487095" priority="20" type="railway.rail" spreadType="center" length="520.90" shape="-58.43,0.00 -507.52,0.00 -567.52,60.00" bidi="124262124">
        <lane id="-124262124_0" index="0" allow="rail" speed="44.44" length="520.90" shape="-58.43,0.00 -507.52,0.00 -563.73,56.21">
            <param key="origId" value="124262124"/>
        </lane>
        <param key="electrified" value="no"/>
        <param key="gauge" value="1435"/>
        <param key="operator" value="DB Netz AG"/>
        <param key="railway" value="rail"/>
        <param key="railway:etcs" value="no"/>
        <param key="railway:gnt" value="no"/>
        <param key="railway:lzb" value="no"/>
        <param key="railway:pzb" value="no"/>
        <param key="service" value="yard"/>
        <param key="workrules" value="DE:EBO"/>
    </edge>
    <edge id="-124264571" from="1383506183" to="1383506147" priority="20" type="railway.rail" spreadType="center" length="211.22" shape="14.08,280.00 -222.04,280.00 -242.04,260.00" bidi="124264571">
        <lane id="-124264571_0" index="0" allow="rail" speed="44.44" length="211.22" shape="14.08,280.00 -222.04,280.00 -238.25,263.79">
            <param key="origId" value="124264571"/>
        </lane>
        <param key="electrified" value="no"/>
        <param key="gauge" value="1435"/>
        <param key="operator" value="DB Netz AG"/>
        <param key="railway" value="rail"/>
        <param key="railway:etcs" value="no"/>
        <param key="railway:gnt" value="no"/>
        <param key="railway:lzb" value="no"/>
        <param key="railway:pzb" value="no"/>
        <param key="service" value="yard"/>
        <param key="workrules" value="DE:EBO"/>
    </edge>
    <edge id="-365185118#0" from="3692318838" to="3692318844" priority="20" type="railway.rail|usage.industrial" spreadType="center" length="81.42" bidi="365185118#0">
        <lane id="-365185118#0_0" index="0" allow="rail" speed="44.44" length="81.42" shape="-1521.35,220.00 -1601.93,220.00">
            <param key="origId" value="365185118"/>
        </lane>
        <param key="electrified" value="no"/>
        <param key="gauge" value="1435"/>
        <param key="railway" value="rail"/>
        <param key="railway:etcs" value="no"/>
        <param key="railway:gnt" value="no"/>
        <param key="railway:lzb" value="no"/>
        <param key="railway:pzb" value="no"/>
        <param key="service" value="yard"/>
        <param key="usage" value="industrial"/>
    </edge>
    <edge id="-405704951" from="258059584" to="3692318843" priority="20" type="railway.rail|usage.industrial" spreadType="center" length="159.53" bidi="405704951">