<?xml version="1.0" encoding="UTF-8"?>

<!-- generated on 2024-05-31 07:05:24 by Eclipse SUMO netedit Version v1_20_0+0311-1f2140adf1b
<configuration xmlns:xsi="http://www.w3.org/2001/XMLSchema-instance" xsi:noNamespaceSchemaLocation="http://sumo.dlr.de/xsd/neteditConfiguration.xsd">

    <input>
        <sumocfg-file value="test.sumocfg"/>
        <additional-files value=""/>
        <route-files value="input_routes.rou.xml"/>
        <sumo-net-file value="net.net.xml"/>
    </input>

    <output>
        <output-file value="net.net.xml"/>
    </output>

    <processing>
        <geometry.min-radius.fix.railways value="false"/>
        <geometry.max-grade.fix value="false"/>
        <offset.disable-normalization value="true"/>
        <lefthand value="0"/>
    </processing>

    <junctions>
        <no-internal-links value="false"/>
        <no-turnarounds value="true"/>
        <junctions.corner-detail value="5"/>
        <junctions.limit-turn-speed value="5.50"/>
        <rectangular-lane-cut value="0"/>
    </junctions>

    <pedestrian>
        <walkingareas value="0"/>
    </pedestrian>

    <netedit>
        <ignore.routeelements value="false"/>
    </netedit>

</configuration>
-->

<net version="1.20" junctionCornerDetail="5" limitTurnSpeed="5.50" xmlns:xsi="http://www.w3.org/2001/XMLSchema-instance" xsi:noNamespaceSchemaLocation="http://sumo.dlr.de/xsd/net_file.xsd">

    <location netOffset="0.00,0.00" convBoundary="0.00,0.00,200.00,100.00" origBoundary="-10000000000.00,-10000000000.00,10000000000.00,10000000000.00" projParameter="!"/>

    <edge id=":J0_w0" function="walkingarea">
        <lane id=":J0_w0_0" index="0" allow="pedestrian" speed="2.78" length="8.40" width="2.00" shape="0.00,-3.20 0.00,-5.20 0.00,5.20 0.00,3.20"/>
    </edge>
    <edge id=":J1_0" function="internal">
        <lane id=":J1_0_0" index="0" disallow="pedestrian" speed="5.99" length="7.49" shape="98.40,7.20 98.17,4.75 97.50,3.00 96.38,1.95 94.80,1.60"/>
    </edge>
    <edge id=":J1_1" function="internal">
        <lane id=":J1_1_0" index="0" disallow="pedestrian" speed="7.58" length="12.62" shape="98.40,7.20 98.83,3.35 100.10,0.60 102.22,-1.05 105.20,-1.60"/>
    </edge>
    <edge id=":J1_2" function="internal">
        <lane id=":J1_2_0" index="0" disallow="pedestrian" speed="5.99" length="3.37" shape="105.20,1.60 103.62,1.95 102.50,3.00 102.42,3.20"/>
    </edge>
    <edge id=":J1_3" function="internal">
        <lane id=":J1_3_0" index="0" disallow="pedestrian" speed="13.89" length="10.40" shape="105.20,1.60 94.80,1.60"/>
    </edge>
    <edge id=":J1_6" function="internal">
        <lane id=":J1_6_0" index="0" disallow="pedestrian" speed="5.99" length="4.12" shape="102.42,3.20 101.82,4.75 101.60,7.20"/>
    </edge>
    <edge id=":J1_4" function="internal">
        <lane id=":J1_4_0" index="0" disallow="pedestrian" speed="13.89" length="10.40" shape="94.80,-1.60 105.20,-1.60"/>
    </edge>
    <edge id=":J1_5" function="internal">
        <lane id=":J1_5_0" index="0" disallow="pedestrian" speed="7.58" length="3.14" shape="94.80,-1.60 97.77,-1.05 97.87,-0.98"/>
    </edge>
    <edge id=":J1_7" function="internal">
        <lane id=":J1_7_0" index="0" disallow="pedestrian" speed="7.58" length="9.48" shape="97.87,-0.98 99.90,0.60 101.17,3.35 101.60,7.20"/>
    </edge>
    <edge id=":J1_c0" function="crossing" crossingEdges="-E2 E2">
        <lane id=":J1_c0_0" index="0" allow="pedestrian" speed="2.78" length="6.40" width="4.00" shape="103.20,5.20 96.80,5.20" outlineShape="103.30,7.20 96.70,7.20 94.80,3.20 94.80,5.20 96.80,7.20 94.80,3.20 105.20,3.20 104.59,3.31 104.09,3.64 103.70,4.20 103.42,4.98 103.26,5.98 103.20,7.20"/>
    </edge>
    <edge id=":J1_w0" function="walkingarea">
        <lane id=":J1_w0_0" index="0" allow="pedestrian" speed="2.78" length="2.24" width="4.00" shape="103.20,7.20 105.20,5.20 105.20,3.20 104.59,3.31 104.09,3.64 103.70,4.20 103.42,4.98 103.26,5.98"/>
    </edge>
    <edge id=":J1_w1" function="walkingarea">
        <lane id=":J1_w1_0" index="0" allow="pedestrian" speed="2.78" length="10.40" width="2.00" shape="105.20,-3.20 105.20,-5.20 94.80,-5.20 94.80,-3.20"/>
    </edge>
    <edge id=":J1_w2" function="walkingarea">
        <lane id=":J1_w2_0" index="0" allow="pedestrian" speed="2.78" length="2.24" width="4.00" shape="94.80,3.20 94.80,5.20 96.80,7.20 96.74,5.98 96.58,4.98 96.30,4.20 95.91,3.64 95.41,3.31"/>
    </edge>
    <edge id=":J2_w0" function="walkingarea">
        <lane id=":J2_w0_0" index="0" allow="pedestrian" speed="2.78" length="8.40" width="2.00" shape="200.00,3.20 200.00,5.20 200.00,-5.20 200.00,-3.20"/>
    </edge>

    <edge id="-E0" from="J1" to="J0" priority="-1">
        <lane id="-E0_0" index="0" allow="pedestrian" speed="13.89" length="94.80" width="2.00" shape="94.80,4.20 0.00,4.20"/>
        <lane id="-E0_1" index="1" disallow="pedestrian" speed="13.89" length="94.80" shape="94.80,1.60 0.00,1.60"/>
    </edge>
    <edge id="-E1" from="J2" to="J1" priority="-1">
        <lane id="-E1_0" index="0" allow="pedestrian" speed="13.89" length="94.80" width="2.00" shape="200.00,4.20 105.20,4.20"/>
        <lane id="-E1_1" index="1" disallow="pedestrian" speed="13.89" length="94.80" shape="200.00,1.60 105.20,1.60"/>
    </edge>
    <edge id="-E2" from="J1" to="J3" priority="-1">
        <lane id="-E2_0" index="0" disallow="pedestrian" speed="13.89" length="92.80" shape="101.60,7.20 101.60,100.00"/>
    </edge>
    <edge id="E0" from="J0" to="J1" priority="-1">
        <lane id="E0_0" index="0" allow="pedestrian" speed="13.89" length="94.80" width="2.00" shape="0.00,-4.20 94.80,-4.20"/>
        <lane id="E0_1" index="1" disallow="pedestrian" speed="13.89" length="94.80" shape="0.00,-1.60 94.80,-1.60"/>
    </edge>
    <edge id="E1" from="J1" to="J2" priority="-1">
        <lane id="E1_0" index="0" allow="pedestrian" speed="13.89" length="94.80" width="2.00" shape="105.20,-4.20 200.00,-4.20"/>
        <lane id="E1_1" index="1" disallow="pedestrian" speed="13.89" length="94.80" shape="105.20,-1.60 200.00,-1.60"/>
    </edge>
    <edge id="E2" from="J3" to="J1" priority="-1">
        <lane id="E2_0" index="0" disallow="pedestrian" speed="13.89" length="92.80" shape="98.40,100.00 98.40,7.20"/>
    </edge>

    <junction id="J0" type="dead_end" x="0.00" y="0.00" incLanes="-E0_0 -E0_1" intLanes="" shape="0.00,0.00 0.00,5.20 0.00,0.00"/>
    <junction id="J1" type="priority" x="100.00" y="0.00" incLanes="E2_0 -E1_0 -E1_1 E0_0 E0_1 :J1_w0_0" intLanes=":J1_0_0 :J1_1_0 :J1_6_0 :J1_3_0 :J1_4_0 :J1_7_0 :J1_c0_0" shape="96.80,7.20 103.20,7.20 103.42,6.09 103.70,5.70 104.09,5.42 104.59,5.26 105.20,5.20 105.20,-5.20 94.80,-5.20 94.80,5.20 95.91,5.42 96.30,5.70 96.58,6.09 96.74,6.59">
        <request index="0" response="1001000" foes="1001000" cont="0"/>
        <request index="1" response="1111000" foes="1111000" cont="0"/>
        <request index="2" response="1000000" foes="1100000" cont="1"/>
        <request index="3" response="0000000" foes="0100011" cont="0"/>
        <request index="4" response="0000000" foes="0000010" cont="0"/>
        <request index="5" response="1001100" foes="1001110" cont="1"/>
        <request index="6" response="0000000" foes="0100111" cont="0"/>
    </junction>
    <junction id="J2" type="dead_end" x="200.00" y="0.00" incLanes="E1_0 E1_1" intLanes="" shape="200.00,0.00 200.00,-5.20 200.00,0.00"/>
    <junction id="J3" type="dead_end" x="100.00" y="100.00" incLanes="-E2_0" intLanes="" shape="100.00,100.00 103.20,100.00 100.00,100.00"/>

    <junction id=":J1_6_0" type="internal" x="102.42" y="3.20" incLanes=":J1_2_0" intLanes=":J1_5_0 :J1_c0_0"/>
    <junction id=":J1_7_0" type="internal" x="97.87" y="-0.98" incLanes=":J1_5_0 -E1_1" intLanes=":J1_1_0 :J1_2_0 :J1_3_0 :J1_c0_0"/>

    <connection from="-E1" to="-E2" fromLane="1" toLane="0" via=":J1_2_0" dir="r" state="m"/>
    <connection from="-E1" to="-E0" fromLane="1" toLane="1" via=":J1_3_0" dir="s" state="M"/>
    <connection from="E0" to="E1" fromLane="1" toLane="1" via=":J1_4_0" dir="s" state="M"/>
    <connection from="E0" to="-E2" fromLane="1" toLane="0" via=":J1_5_0" dir="l" state="m"/>
    <connection from="E2" to="-E0" fromLane="0" toLane="1" via=":J1_0_0" dir="r" state="m"/>
    <connection from="E2" to="E1" fromLane="0" toLane="1" via=":J1_1_0" dir="l" state="m"/>

    <connection from=":J1_0" to="-E0" fromLane="0" toLane="1" dir="r" state="M"/>
    <connection from=":J1_1" to="E1" fromLane="0" toLane="1" dir="l" state="M"/>
    <connection from=":J1_2" to="-E2" fromLane="0" toLane="0" via=":J1_6_0" dir="r" state="m"/>
    <connection from=":J1_6" to="-E2" fromLane="0" toLane="0" dir="r" state="m"/>
    <connection from=":J1_3" to="-E0" fromLane="0" toLane="1" dir="s" state="M"/>
    <connection from=":J1_4" to="E1" fromLane="0" toLane="1" dir="s" state="M"/>
    <connection from=":J1_5" to="-E2" fromLane="0" toLane="0" via=":J1_7_0" dir="l" state="m"/>
    <connection from=":J1_7" to="-E2" fromLane="0" toLane="0" dir="l" state="m"/>

    <connection from=":J0_w0" to="E0" fromLane="0" toLane="0" dir="s" state="M"/>
    <connection from="-E0" to=":J0_w0" fromLane="0" toLane="0" dir="s" state="M"/>
    <connection from=":J1_c0" to=":J1_w2" fromLane="0" toLane="0" dir="s" state="M"/>
    <connection from=":J1_w0" to=":J1_c0" fromLane="0" toLane="0" dir="s" state="M"/>
    <connection from="-E1" to=":J1_w0" fromLane="0" toLane="0" dir="s" state="M"/>
    <connection from=":J1_w1" to="E1" fromLane="0" toLane="0" dir="s" state="M"/>
    <connection from="E0" to=":J1_w1" fromLane="0" toLane="0" dir="s" state="M"/>
    <connection from=":J1_w2" to="-E0" fromLane="0" toLane="0" dir="s" state="M"/>
    <connection from=":J2_w0" to="-E1" fromLane="0" toLane="0" dir="s" state="M"/>
    <connection from="E1" to=":J2_w0" fromLane="0" toLane="0" dir="s" state="M"/>
</net>
