<?xml version="1.0" encoding="UTF-8"?>

<!-- generated on 2022-10-17 14:03:52 by Eclipse SUMO netedit Version v1_14_1+1777-e4a68a9ee64
-->

<routes xmlns:xsi="http://www.w3.org/2001/XMLSchema-instance" xsi:noNamespaceSchemaLocation="http://sumo.dlr.de/xsd/routes_file.xsd">
    <!-- Routes -->
    <route id="route_0" edges="Edge0 Edge1 Edge2"/>
    <!-- Vehicles, persons and containers (sorted by depart) -->
    <person id="p_0" depart="0.00">
        <walk from="Edge0" to="Edge0"/>
        <walk route="route_0" arrivalPos="2.50"/>
    </person>
</routes>
