<additional xmlns:xsi="http://www.w3.org/2001/XMLSchema-instance" xsi:noNamespaceSchemaLocation="https://sumo.dlr.de/xsd/additional_file.xsd">
    <route id="r0" edges="beg middle end rend"/>
    <route id="r1" edges="beg middle end rend">
        <stop busStop="busstop0" duration="10" until="100"/>
        <stop busStop="busstop1" duration="10" until="200"/>
    </route>

    <busStop id="busstop0" lane="beg_0" startPos="20" endPos="40" lines="100 101 102"/>
    <busStop id="busstop1" lane="middle_0" startPos="20" endPos="40" lines="100 101 102"/>
</additional>
