<?xml version="1.0" encoding="UTF-8"?>

<!-- generated on 2025-04-04 15:34:04 by Eclipse SUMO sumo Version v1_14_1+18586-0db099af1ab
This data file and the accompanying materials
are made available under the terms of the Eclipse Public License v2.0
which accompanies this distribution, and is available at
http://www.eclipse.org/legal/epl-v20.html
This file may also be made available under the following Secondary
Licenses when the conditions for such availability set forth in the Eclipse
Public License 2.0 are satisfied: GNU General Public License, version 2
or later which is available at
https://www.gnu.org/licenses/old-licenses/gpl-2.0-standalone.html
SPDX-License-Identifier: EPL-2.0 OR GPL-2.0-or-later
<sumoConfiguration xmlns:xsi="http://www.w3.org/2001/XMLSchema-instance" xsi:noNamespaceSchemaLocation="http://sumo.dlr.de/xsd/sumoConfiguration.xsd">

    <input>
        <net-file value="net.net.xml"/>
        <route-files value="input_routes.rou.xml"/>
        <additional-files value="input_additional.add.xml"/>
    </input>

    <output>
        <write-license value="true"/>
        <battery-output value="battery.xml"/>
        <battery-output.precision value="4"/>
        <chargingstations-output value="chargingstations.xml"/>
        <tripinfo-output value="tripinfos.xml"/>
    </output>

    <processing>
        <default.speeddev value="0"/>
    </processing>

    <report>
        <xml-validation value="never"/>
        <duration-log.disable value="true"/>
        <no-step-log value="true"/>
    </report>

    <battery>
        <device.stationfinder.probability value="1"/>
    </battery>

</sumoConfiguration>
-->

<chargingstations-export>
    <chargingStation id="CS1" totalEnergyCharged="255.44" chargingSteps="44">
        <vehicle id="veh_tow" type="ElectricVehicle1" totalEnergyChargedIntoVehicle="255.44" chargingBegin="35.00" chargingEnd="78.00">
            <step time="35.00" chargingStatus="chargingStopped" energyCharged="5.81" partialCharge="5.81" power="22000.00" efficiency="0.95" actualBatteryCapacity="1752.89" maximumBatteryCapacity="35000.00"/>
            <step time="36.00" chargingStatus="chargingStopped" energyCharged="5.81" partialCharge="11.61" power="22000.00" efficiency="0.95" actualBatteryCapacity="1758.68" maximumBatteryCapacity="35000.00"/>
            <step time="37.00" chargingStatus="chargingStopped" energyCharged="5.81" partialCharge="17.42" power="22000.00" efficiency="0.95" actualBatteryCapacity="1764.48" maximumBatteryCapacity="35000.00"/>
            <step time="38.00" chargingStatus="chargingStopped" energyCharged="5.81" partialCharge="23.22" power="22000.00" efficiency="0.95" actualBatteryCapacity="1770.27" maximumBatteryCapacity="35000.00"/>
            <step time="39.00" chargingStatus="chargingStopped" energyCharged="5.81" partialCharge="29.03" power="22000.00" efficiency="0.95" actualBatteryCapacity="1776.07" maximumBatteryCapacity="35000.00"/>
            <step time="40.00" chargingStatus="chargingStopped" energyCharged="5.81" partialCharge="34.83" power="22000.00" efficiency="0.95" actualBatteryCapacity="1781.86" maximumBatteryCapacity="35000.00"/>
            <step time="41.00" chargingStatus="chargingStopped" energyCharged="5.81" partialCharge="40.64" power="22000.00" efficiency="0.95" actualBatteryCapacity="1787.66" maximumBatteryCapacity="35000.00"/>
            <step time="42.00" chargingStatus="chargingStopped" energyCharged="5.81" partialCharge="46.44" power="22000.00" efficiency="0.95" actualBatteryCapacity="1793.45" maximumBatteryCapacity="35000.00"/>
            <step time="43.00" chargingStatus="chargingStopped" energyCharged="5.81" partialCharge="52.25" power="22000.00" efficiency="0.95" actualBatteryCapacity="1799.24" maximumBatteryCapacity="35000.00"/>
            <step time="44.00" chargingStatus="chargingStopped" energyCharged="5.81" partialCharge="58.06" power="22000.00" efficiency="0.95" actualBatteryCapacity="1805.04" maximumBatteryCapacity="35000.00"/>
            <step time="45.00" chargingStatus="chargingStopped" energyCharged="5.81" partialCharge="63.86" power="22000.00" efficiency="0.95" actualBatteryCapacity="1810.83" maximumBatteryCapacity="35000.00"/>
            <step time="46.00" chargingStatus="chargingStopped" energyCharged="5.81" partialCharge="69.67" power="22000.00" efficiency="0.95" actualBatteryCapacity="1816.63" maximumBatteryCapacity="35000.00"/>
            <step time="47.00" chargingStatus="chargingStopped" energyCharged="5.81" partialCharge="75.47" power="22000.00" efficiency="0.95" actualBatteryCapacity="1822.42" maximumBatteryCapacity="35000.00"/>
            <step time="48.00" chargingStatus="chargingStopped" energyCharged="5.81" partialCharge="81.28" power="22000.00" efficiency="0.95" actualBatteryCapacity="1828.22" maximumBatteryCapacity="35000.00"/>
            <step time="49.00" chargingStatus="chargingStopped" energyCharged="5.81" partialCharge="87.08" power="22000.00" efficiency="0.95" actualBatteryCapacity="1834.01" maximumBatteryCapacity="35000.00"/>
            <step time="50.00" chargingStatus="chargingStopped" energyCharged="5.81" partialCharge="92.89" power="22000.00" efficiency="0.95" actualBatteryCapacity="1839.81" maximumBatteryCapacity="35000.00"/>
            <step time="51.00" chargingStatus="chargingStopped" energyCharged="5.81" partialCharge="98.69" power="22000.00" efficiency="0.95" actualBatteryCapacity="1845.60" maximumBatteryCapacity="35000.00"/>
            <step time="52.00" chargingStatus="chargingStopped" energyCharged="5.81" partialCharge="104.50" power="22000.00" efficiency="0.95" actualBatteryCapacity="1851.39" maximumBatteryCapacity="35000.00"/>
            <step time="53.00" chargingStatus="chargingStopped" energyCharged="5.81" partialCharge="110.31" power="22000.00" efficiency="0.95" actualBatteryCapacity="1857.19" maximumBatteryCapacity="35000.00"/>
            <step time="54.00" chargingStatus="chargingStopped" energyCharged="5.81" partialCharge="116.11" power="22000.00" efficiency="0.95" actualBatteryCapacity="1862.98" maximumBatteryCapacity="35000.00"/>
            <step time="55.00" chargingStatus="chargingStopped" energyCharged="5.81" partialCharge="121.92" power="22000.00" efficiency="0.95" actualBatteryCapacity="1868.78" maximumBatteryCapacity="35000.00"/>
            <step time="56.00" chargingStatus="chargingStopped" energyCharged="5.81" partialCharge="127.72" power="22000.00" efficiency="0.95" actualBatteryCapacity="1874.57" maximumBatteryCapacity="35000.00"/>
            <step time="57.00" chargingStatus="chargingStopped" energyCharged="5.81" partialCharge="133.53" power="22000.00" efficiency="0.95" actualBatteryCapacity="1880.37" maximumBatteryCapacity="35000.00"/>
            <step time="58.00" chargingStatus="chargingStopped" energyCharged="5.81" partialCharge="139.33" power="22000.00" efficiency="0.95" actualBatteryCapacity="1886.16" maximumBatteryCapacity="35000.00"/>
            <step time="59.00" chargingStatus="chargingStopped" energyCharged="5.81" partialCharge="145.14" power="22000.00" efficiency="0.95" actualBatteryCapacity="1891.96" maximumBatteryCapacity="35000.00"/>
            <step time="60.00" chargingStatus="chargingStopped" energyCharged="5.81" partialCharge="150.94" power="22000.00" efficiency="0.95" actualBatteryCapacity="1897.75" maximumBatteryCapacity="35000.00"/>
            <step time="61.00" chargingStatus="chargingStopped" energyCharged="5.81" partialCharge="156.75" power="22000.00" efficiency="0.95" actualBatteryCapacity="1903.54" maximumBatteryCapacity="35000.00"/>
            <step time="62.00" chargingStatus="chargingStopped" energyCharged="5.81" partialCharge="162.56" power="22000.00" efficiency="0.95" actualBatteryCapacity="1909.34" maximumBatteryCapacity="35000.00"/>
            <step time="63.00" chargingStatus="chargingStopped" energyCharged="5.81" partialCharge="168.36" power="22000.00" efficiency="0.95" actualBatteryCapacity="1915.13" maximumBatteryCapacity="35000.00"/>
            <step time="64.00" chargingStatus="chargingStopped" energyCharged="5.81" partialCharge="174.17" power="22000.00" efficiency="0.95" actualBatteryCapacity="1920.93" maximumBatteryCapacity="35000.00"/>
            <step time="65.00" chargingStatus="chargingStopped" energyCharged="5.81" partialCharge="179.97" power="22000.00" efficiency="0.95" actualBatteryCapacity="1926.72" maximumBatteryCapacity="35000.00"/>
            <step time="66.00" chargingStatus="chargingStopped" energyCharged="5.81" partialCharge="185.78" power="22000.00" efficiency="0.95" actualBatteryCapacity="1932.52" maximumBatteryCapacity="35000.00"/>
            <step time="67.00" chargingStatus="chargingStopped" energyCharged="5.81" partialCharge="191.58" power="22000.00" efficiency="0.95" actualBatteryCapacity="1938.31" maximumBatteryCapacity="35000.00"/>
            <step time="68.00" chargingStatus="chargingStopped" energyCharged="5.81" partialCharge="197.39" power="22000.00" efficiency="0.95" actualBatteryCapacity="1944.11" maximumBatteryCapacity="35000.00"/>
            <step time="69.00" chargingStatus="chargingStopped" energyCharged="5.81" partialCharge="203.19" power="22000.00" efficiency="0.95" actualBatteryCapacity="1949.90" maximumBatteryCapacity="35000.00"/>
            <step time="70.00" chargingStatus="chargingStopped" energyCharged="5.81" partialCharge="209.00" power="22000.00" efficiency="0.95" actualBatteryCapacity="1955.69" maximumBatteryCapacity="35000.00"/>
            <step time="71.00" chargingStatus="chargingStopped" energyCharged="5.81" partialCharge="214.81" power="22000.00" efficiency="0.95" actualBatteryCapacity="1961.49" maximumBatteryCapacity="35000.00"/>
            <step time="72.00" chargingStatus="chargingStopped" energyCharged="5.81" partialCharge="220.61" power="22000.00" efficiency="0.95" actualBatteryCapacity="1967.28" maximumBatteryCapacity="35000.00"/>
            <step time="73.00" chargingStatus="chargingStopped" energyCharged="5.81" partialCharge="226.42" power="22000.00" efficiency="0.95" actualBatteryCapacity="1973.08" maximumBatteryCapacity="35000.00"/>
            <step time="74.00" chargingStatus="chargingStopped" energyCharged="5.81" partialCharge="232.22" power="22000.00" efficiency="0.95" actualBatteryCapacity="1978.87" maximumBatteryCapacity="35000.00"/>
            <step time="75.00" chargingStatus="chargingStopped" energyCharged="5.81" partialCharge="238.03" power="22000.00" efficiency="0.95" actualBatteryCapacity="1984.67" maximumBatteryCapacity="35000.00"/>
            <step time="76.00" chargingStatus="chargingStopped" energyCharged="5.81" partialCharge="243.83" power="22000.00" efficiency="0.95" actualBatteryCapacity="1990.46" maximumBatteryCapacity="35000.00"/>
            <step time="77.00" chargingStatus="chargingStopped" energyCharged="5.81" partialCharge="249.64" power="22000.00" efficiency="0.95" actualBatteryCapacity="1996.26" maximumBatteryCapacity="35000.00"/>
            <step time="78.00" chargingStatus="chargingStopped" energyCharged="5.81" partialCharge="255.44" power="22000.00" efficiency="0.95" actualBatteryCapacity="2002.05" maximumBatteryCapacity="35000.00"/>
        </vehicle>
    </chargingStation>
</chargingstations-export>
