<?xml version="1.0" encoding="UTF-8"?>

<!-- generated on 07.09.2020 10:55:40 by Eclipse SUMO netedit Version v1_6_0+1978-66ee23b95e
<configuration xmlns:xsi="http://www.w3.org/2001/XMLSchema-instance" xsi:noNamespaceSchemaLocation="http://sumo.dlr.de/xsd/netconvertConfiguration.xsd">

    <input>
        <sumo-net-file value="C:\Users\alva_pa\.texttest\tmp\netedit.gui.07Sep105205.14384\netedit.gui\demandElements\vehicle_embedded\load\arrivalLane\input_net.net.xml"/>
    </input>

    <output>
        <output-file value="C:\Users\alva_pa\.texttest\tmp\netedit.gui.07Sep105205.14384\netedit.gui\demandElements\vehicle_embedded\load\arrivalLane\net.net.xml"/>
    </output>

    <processing>
        <geometry.min-radius.fix.railways value="false"/>
        <geometry.max-grade.fix value="false"/>
        <offset.disable-normalization value="true"/>
        <lefthand value="false"/>
    </processing>

    <junctions>
        <no-turnarounds value="true"/>
        <junctions.corner-detail value="5"/>
        <junctions.limit-turn-speed value="5.5"/>
        <rectangular-lane-cut value="false"/>
    </junctions>

    <pedestrian>
        <walkingareas value="false"/>
    </pedestrian>

    <netedit>
        <additional-files value="C:\Users\alva_pa\.texttest\tmp\netedit.gui.07Sep105205.14384\netedit.gui\demandElements\vehicle_embedded\load\arrivalLane\additionals.xml"/>
        <additionals-output value="C:\Users\alva_pa\.texttest\tmp\netedit.gui.07Sep105205.14384\netedit.gui\demandElements\vehicle_embedded\load\arrivalLane\additionals.xml"/>
        <route-files value="C:\Users\alva_pa\.texttest\tmp\netedit.gui.07Sep105205.14384\netedit.gui\demandElements\vehicle_embedded\load\arrivalLane\routes.xml"/>
        <demandelements-output value="C:\Users\alva_pa\.texttest\tmp\netedit.gui.07Sep105205.14384\netedit.gui\demandElements\vehicle_embedded\load\arrivalLane\routes.xml"/>
        <data-files value="C:\Users\alva_pa\.texttest\tmp\netedit.gui.07Sep105205.14384\netedit.gui\demandElements\vehicle_embedded\load\arrivalLane\datas.xml"/>
        <dataelements-output value="C:\Users\alva_pa\.texttest\tmp\netedit.gui.07Sep105205.14384\netedit.gui\demandElements\vehicle_embedded\load\arrivalLane\datas.xml"/>
    </netedit>

    <visualisation>
        <gui-settings-file value="C:\Users\alva_pa\.texttest\tmp\netedit.gui.07Sep105205.14384\netedit.gui\demandElements\vehicle_embedded\load\arrivalLane\gui-settings.xml"/>
        <window-size value="700,500"/>
        <window-pos value="50,50"/>
        <gui-testing value="true"/>
        <gui-testing-debug value="true"/>
        <gui-testing-debug-gl value="true"/>
        <gui-testing.setting-output value="C:\Users\alva_pa\.texttest\tmp\netedit.gui.07Sep105205.14384\netedit.gui\demandElements\vehicle_embedded\load\arrivalLane\guisettingsoutput.xml"/>
    </visualisation>

    <report>
        <no-warnings value="true"/>
        <aggregate-warnings value="5"/>
        <error-log value="C:\Users\alva_pa\.texttest\tmp\netedit.gui.07Sep105205.14384\netedit.gui\demandElements\vehicle_embedded\load\arrivalLane\log.txt"/>
    </report>

</configuration>
-->

<routes xmlns:xsi="http://www.w3.org/2001/XMLSchema-instance" xsi:noNamespaceSchemaLocation="http://sumo.dlr.de/xsd/routes_file.xsd">
    <vehicle id="vehicle_0" depart="20.00">
        <route edges="gneE2 gneE4 gneE5" color="cyan"/>
    </vehicle>
    <vehicle id="vehicle_1" depart="20.00">
        <route edges="gneE2 gneE4 gneE5" color="cyan"/>
    </vehicle>
    <vehicle id="vehicle_2" depart="20.00" arrivalLane="0">
        <route edges="gneE2 gneE4 gneE5" color="cyan"/>
    </vehicle>
    <vehicle id="vehicle_3" depart="20.00" arrivalLane="500">
        <route edges="gneE2 gneE4 gneE5" color="cyan"/>
    </vehicle>
    <vehicle id="vehicle_4" depart="20.00" arrivalLane="current">
        <route edges="gneE2 gneE4 gneE5" color="cyan"/>
    </vehicle>
</routes>
