<?xml version="1.0" encoding="UTF-8"?>

<!-- generated on Wed Jul  4 15:16:06 2012 by SUMO netconvert Version dev-SVN-r12454
<?xml version="1.0" encoding="UTF-8"?>

<configuration xmlns:xsi="http://www.w3.org/2001/XMLSchema-instance" xsi:noNamespaceSchemaLocation="http://sumo.sf.net/xsd/netconvertConfiguration.xsd">

    <input>
        <node-files value="input_plain.nod.xml"/>
        <edge-files value="input_plain.edg.xml"/>
    </input>

    <output>
        <plain-output-prefix value="plain"/>
    </output>

</configuration>
-->

<connections version="0.13" xmlns:xsi="http://www.w3.org/2001/XMLSchema-instance" xsi:noNamespaceSchemaLocation="http://sumo.sf.net/xsd/connections_file.xsd">
    <connection from="gneE0" to="gneE2" fromLane="0" toLane="0"/>
    <connection from="gneE0" to="gneE1" fromLane="1" toLane="0"/>
    <connection from="gneE0" to="gneE1" fromLane="2" toLane="1"/>

</connections>
