<?xml version="1.0" encoding="UTF-8"?>

<!-- generated on 2022-11-14 13:52:38 by Eclipse SUMO netconvert Version v1_15_0+0222-27ef75e
This data file and the accompanying materials
are made available under the terms of the Eclipse Public License v2.0
which accompanies this distribution, and is available at
http://www.eclipse.org/legal/epl-v20.html
This file may also be made available under the following Secondary
Licenses when the conditions for such availability set forth in the Eclipse
Public License 2.0 are satisfied: GNU General Public License, version 2
or later which is available at
https://www.gnu.org/licenses/old-licenses/gpl-2.0-standalone.html
SPDX-License-Identifier: EPL-2.0 OR GPL-2.0-or-later
<configuration xmlns:xsi="http://www.w3.org/2001/XMLSchema-instance" xsi:noNamespaceSchemaLocation="http://sumo.dlr.de/xsd/netconvertConfiguration.xsd">

    <input>
        <sumo-net-file value="input_net.net.xml"/>
    </input>

    <output>
        <write-license value="true"/>
    </output>

    <processing>
        <geometry.min-radius.fix.railways value="false"/>
        <geometry.max-grade.fix value="false"/>
        <offset.disable-normalization value="true"/>
        <lefthand value="0"/>
    </processing>

    <junctions>
        <no-internal-links value="true"/>
        <no-turnarounds value="true"/>
        <junctions.join value="true"/>
        <junctions.corner-detail value="0"/>
        <junctions.limit-turn-speed value="-1.00"/>
        <rectangular-lane-cut value="0"/>
    </junctions>

    <pedestrian>
        <walkingareas value="0"/>
    </pedestrian>

    <report>
        <xml-validation value="never"/>
    </report>

</configuration>
-->

<net version="1.16" xmlns:xsi="http://www.w3.org/2001/XMLSchema-instance" xsi:noNamespaceSchemaLocation="http://sumo.dlr.de/xsd/net_file.xsd">

    <location netOffset="0.00,0.00" convBoundary="-7.77,-5.19,177.16,69.26" origBoundary="-10000000000.00,-10000000000.00,10000000000.00,10000000000.00" projParameter="!"/>

    <edge id="gneE10" from="cluster_gneJ2_gneJ3_gneJ4" to="gneJ1" priority="1" spreadType="center" shape="83.93,6.61 109.77,45.81 78.49,69.26 48.11,47.19 72.51,6.61">
        <lane id="gneE10_0" index="0" speed="13.89" length="177.29" shape="87.76,12.42 109.77,45.81 78.49,69.26 48.11,47.19 68.95,12.53"/>
    </edge>
    <edge id="gneE11" from="gneJ1" to="gneJ12" priority="1" spreadType="center">
        <lane id="gneE11_0" index="0" speed="13.89" length="76.21" shape="65.60,6.78 -7.30,8.54"/>
    </edge>
    <edge id="gneE13" from="gneJ1" to="cluster_gneJ2_gneJ3_gneJ4" priority="1" spreadType="center" shape="72.51,6.61 71.82,-3.00">
        <lane id="gneE13_0" index="0" speed="13.89" length="14.30" shape="72.17,1.82 72.15,1.62"/>
    </edge>
    <edge id="gneE6" from="gneJ5" to="cluster_gneJ2_gneJ3_gneJ4" priority="1" spreadType="center" shape="-7.77,-1.91 71.82,-3.00">
        <lane id="gneE6_0" index="0" speed="13.89" length="88.30" shape="-7.77,-1.91 66.31,-2.92"/>
    </edge>
    <edge id="gneE8" from="cluster_gneJ2_gneJ3_gneJ4" to="gneJ8" priority="1" spreadType="center" shape="84.82,-3.20 177.01,-5.19">
        <lane id="gneE8_0" index="0" speed="13.89" length="97.40" shape="90.64,-3.33 177.01,-5.19"/>
    </edge>
    <edge id="gneE9" from="gneJ9" to="cluster_gneJ2_gneJ3_gneJ4" priority="1" spreadType="center" shape="177.16,6.20 83.93,6.61">
        <lane id="gneE9_0" index="0" speed="13.89" length="98.77" shape="177.16,6.20 90.86,6.58"/>
    </edge>

    <junction id="cluster_gneJ2_gneJ3_gneJ4" type="priority" x="80.19" y="0.14" incLanes="gneE13_0 gneE9_0 gneE6_0" intLanes="" shape="70.62,2.61 73.81,2.38 86.42,13.30 89.09,11.54 90.89,8.18 90.61,-4.93 66.29,-4.52 66.33,-1.32">
        <request index="0" response="11000" foes="11000"/>
        <request index="1" response="10100" foes="10100"/>
        <request index="2" response="00000" foes="10010"/>
        <request index="3" response="00000" foes="00001"/>
        <request index="4" response="00100" foes="00111"/>
    </junction>
    <junction id="gneJ1" type="priority" x="72.51" y="6.61" incLanes="gneE10_0" intLanes="" shape="73.70,0.83 70.51,1.06 65.56,5.18 65.64,8.38 67.58,11.71 70.32,13.36">
        <request index="0" response="00" foes="00"/>
        <request index="1" response="00" foes="00"/>
    </junction>
    <junction id="gneJ12" type="dead_end" x="-7.30" y="8.54" incLanes="gneE11_0" intLanes="" shape="-7.26,10.14 -7.34,6.94"/>
    <junction id="gneJ5" type="dead_end" x="-7.77" y="-1.91" incLanes="" intLanes="" shape="-7.75,-0.31 -7.79,-3.51"/>
    <junction id="gneJ8" type="dead_end" x="177.01" y="-5.19" incLanes="gneE8_0" intLanes="" shape="176.98,-6.79 177.04,-3.59"/>
    <junction id="gneJ9" type="dead_end" x="177.16" y="6.20" incLanes="" intLanes="" shape="177.15,4.60 177.17,7.80"/>

    <connection from="gneE10" to="gneE11" fromLane="0" toLane="0" dir="r" state="M"/>
    <connection from="gneE10" to="gneE13" fromLane="0" toLane="0" dir="s" state="M"/>
    <connection from="gneE13" to="gneE8" fromLane="0" toLane="0" dir="l" state="m"/>
    <connection from="gneE13" to="gneE10" fromLane="0" toLane="0" dir="t" state="m"/>
    <connection from="gneE6" to="gneE8" fromLane="0" toLane="0" dir="s" state="M"/>
    <connection from="gneE6" to="gneE10" fromLane="0" toLane="0" dir="l" state="m"/>
    <connection from="gneE9" to="gneE10" fromLane="0" toLane="0" dir="r" state="M"/>

</net>
