<additional xmlns:xsi="http://www.w3.org/2001/XMLSchema-instance" xsi:noNamespaceSchemaLocation="http://sumo.dlr.de/xsd/additional_file.xsd">
    <!-- Parking Area A -->
    <parkingArea id="parkingArea_A" lane="center1_1" startPos="12.00" endPos="22.00" friendlyPos="0" roadsideCapacity="0" width="3.20" length="5.00" angle="0.00">
        <!-- Parking Space A -->
        <space x="17.00" y="7.00" z="10.00" width="4.00" length="5.00" angle="45.00" slope="23.5" name="nameA">
            <param key="KeyA1" value="valueA1"/>
            <param key="KeyA2" value="valueA2"/>
            <param key="KeyA3" value="valueA3"/>
        </space>
    </parkingArea>
    <!-- Parking Area B -->
    <parkingArea id="parkingArea_B" lane="center1_1" startPos="29.00" endPos="39.00" friendlyPos="0" roadsideCapacity="0" width="3.20" length="5.00" angle="0.00">
        <!-- Parking Space B -->
        <space x="34.00" y="7.00" z="20.00" width="2.00" length="12.00" angle="12.00" slope="30" name="nameB">
            <param key="KeyB1" value="valueB1"/>
            <param key="KeyB2" value="valueB2"/>
            <param key="KeyB3" value="valueB3"/>
        </space>
    </parkingArea>
</additional>
