<?xml version="1.0" encoding="UTF-8"?>

<!-- generated on 04/02/16 22:37:25 by SUMO polyconvert Version dev-SVN-r20320
<?xml version="1.0" encoding="UTF-8"?>

<configuration xmlns:xsi="http://www.w3.org/2001/XMLSchema-instance" xsi:noNamespaceSchemaLocation="http://sumo.dlr.de/xsd/polyconvertConfiguration.xsd">

    <input>
        <osm-files value="osm.xml"/>
        <osm.keep-full-type value="true"/>
        <type-file value="D:\behr_mi\Projekte\Vabene\trunk\SE\extern\sumo/data/typemap/osmPolyconvert.typ.xml"/>
    </input>

    <output>
        <output-file value="pois.poi.xml"/>
    </output>

    <projection>
        <proj.scale value="0"/>
        <proj.utm value="true"/>
    </projection>

    <processing>
        <all-attributes value="true"/>
        <ignore-errors value="true"/>
        <poi-layer-offset value="5"/>
    </processing>

    <report>
        <verbose value="true"/>
        <xml-validation value="never"/>
    </report>

</configuration>
-->

<additional xmlns:xsi="http://www.w3.org/2001/XMLSchema-instance" xsi:noNamespaceSchemaLocation="http://sumo.dlr.de/xsd/additional_file.xsd">
    <location netOffset="0.00,0.00" convBoundary="399823.45,5809422.23,399986.69,5809486.66" origBoundary="13.526699,52.425832,13.529100,52.426404" projParameter="+proj=utm +zone=33 +ellps=WGS84 +datum=WGS84 +units=m +no_defs"/>

    <poly id="-974" type="polygon.overpass" color="51,128,255" fill="0" layer="-1.00" shape="399863.40,5809422.23 399824.64,5809486.66 399823.45,5809472.85 399862.26,5809457.18 399986.69,5809471.75">
        <param key="class" value="polygon"/>
        <param key="polygon" value="overpass"/>
    </poly>
    <poi id="32266935" type="amenity.parking" color="184,184,179" layer="4.00" x="399824.64" y="5809486.66">
        <param key="amenity" value="parking"/>
        <param key="created_by" value="JOSM"/>
    </poi>
</additional>
