<?xml version="1.0" encoding="UTF-8"?>

<!-- generated on 2022-03-07 12:35:17 by Eclipse SUMO netedit Version v1_12_0+1177-f6b46b7e4a3
-->

<routes xmlns:xsi="http://www.w3.org/2001/XMLSchema-instance" xsi:noNamespaceSchemaLocation="http://sumo.dlr.de/xsd/routes_file.xsd">
    <!-- Vehicles, persons and containers (sorted by depart) -->
    <flow id="flow_6" begin="0.00" end="100.00" vehsPerHour="20.30">
        <route edges="gneE2 gneE4 gneE5" color="cyan"/>
    </flow>
    <flow id="flow_7" begin="0.00" end="100.00" vehsPerHour="50.00">
        <route edges="gneE2 gneE4 gneE5" color="cyan"/>
    </flow>
</routes>
