<routes>
   <route id="horizontal" edges="2fi 2si 1o 1fi 1si 3o 3fi 3si 4o 4fi 4si"/>
   <vehicle id="horiz" route="horizontal" depart="0"/>
</routes>
