<routes>
    <person id="p0" depart="0" departPos="20">
        <walk edges="EC EC" arrivalPos="-20"/>
    </person>
</routes>
