<?xml version="1.0" encoding="UTF-8"?>

<!-- generated on 2022-09-16 11:13:06 by Eclipse SUMO netedit Version v1_14_1+1089-9da63a631b2
-->

<additional xmlns:xsi="http://www.w3.org/2001/XMLSchema-instance" xsi:noNamespaceSchemaLocation="http://sumo.dlr.de/xsd/additional_file.xsd">
    <!-- StoppingPlaces -->
    <containerStop id="ct_0" lane="gneE0_0" startPos="16.00" endPos="26.00" color="139,131,120"/>
    <containerStop id="ct_1" lane="gneE0_0" startPos="20.00" endPos="30.00" color="red"/>
</additional>
