<?xml version="1.0" encoding="UTF-8"?>

<!-- generated on Wed 01 Aug 2018 03:26:11 PM CEST by Eclipse SUMO netedit Version 40e2fbd
<configuration xmlns:xsi="http://www.w3.org/2001/XMLSchema-instance" xsi:noNamespaceSchemaLocation="http://sumo.dlr.de/xsd/netconvertConfiguration.xsd">

    <input>
        <sumo-net-file value="/scr1/sumo/tests/netconvert/function/railway/repair/stops_bidi_between/input_net.net.xml"/>
    </input>

    <output>
        <output-file value="/scr1/sumo/tests/netconvert/function/railway/repair/stops_bidi_between/input_net.net.xml"/>
    </output>

    <processing>
        <no-turnarounds value="true"/>
        <offset.disable-normalization value="true"/>
        <lefthand value="false"/>
        <junctions.corner-detail value="5"/>
        <rectangular-lane-cut value="false"/>
        <walkingareas value="false"/>
    </processing>

</configuration>
-->

<net version="0.27" junctionCornerDetail="5" xmlns:xsi="http://www.w3.org/2001/XMLSchema-instance" xsi:noNamespaceSchemaLocation="http://sumo.dlr.de/xsd/net_file.xsd">

    <location netOffset="0.00,0.00" convBoundary="-100.00,-140.72,300.00,-61.12" origBoundary="-10000000000.00,-10000000000.00,10000000000.00,10000000000.00" projParameter="!"/>

    <edge id=":2_0" function="internal">
        <lane id=":2_0_0" index="0" allow="rail_urban" speed="27.78" length="7.99" shape="7.00,-100.00 4.31,-99.77 3.23,-99.06 3.76,-97.89 5.91,-96.25"/>
    </edge>
    <edge id=":2_1" function="internal">
        <lane id=":2_1_0" index="0" allow="rail_urban" speed="27.78" length="8.97" shape="-1.97,-100.00 0.59,-99.74 2.23,-99.00 3.74,-97.82 5.91,-96.25"/>
    </edge>
    <edge id=":3_0" function="internal">
        <lane id=":3_0_0" index="0" allow="rail_urban" speed="27.78" length="13.62" shape="105.91,-96.24 102.82,-97.96 99.76,-99.13 96.55,-99.79 93.02,-100.00"/>
    </edge>
    <edge id=":3_1" function="internal">
        <lane id=":3_1_0" index="0" allow="rail_urban" speed="27.78" length="13.98" shape="105.91,-96.24 94.12,-103.76"/>
    </edge>
    <edge id=":3_2" function="internal">
        <lane id=":3_2_0" index="0" allow="rail_urban" speed="27.78" length="13.98" shape="107.00,-100.00 93.02,-100.00"/>
    </edge>
    <edge id=":3_3" function="internal">
        <lane id=":3_3_0" index="0" allow="rail_urban" speed="27.78" length="4.75" shape="107.00,-100.00 103.47,-100.21 102.28,-100.45"/>
    </edge>
    <edge id=":3_4" function="internal">
        <lane id=":3_4_0" index="0" speed="27.78" length="8.86" shape="102.28,-100.45 100.26,-100.87 97.21,-102.03 94.12,-103.76"/>
    </edge>
    <edge id=":4_0" function="internal">
        <lane id=":4_0_0" index="0" allow="rail_urban" speed="27.78" length="8.96" shape="194.10,-103.76 196.27,-102.18 197.78,-101.00 199.41,-100.26 201.97,-100.00"/>
    </edge>

    <edge id="a" from="1" to="2" priority="-1" spreadType="center">
        <lane id="a_0" index="0" allow="rail_urban" speed="27.78" length="98.03" shape="-100.00,-100.00 -1.97,-100.00"/>
    </edge>
    <edge id="b" from="3" to="2" priority="-1" spreadType="center">
        <lane id="b_0" index="0" allow="rail_urban" speed="27.78" length="86.02" shape="93.02,-100.00 7.00,-100.00"/>
    </edge>
    <edge id="c" from="4" to="3" priority="-1" spreadType="center">
        <lane id="c_0" index="0" allow="rail_urban" speed="27.78" length="86.01" shape="193.00,-100.00 107.00,-100.00"/>
    </edge>
    <edge id="d" from="4" to="5" priority="-1" spreadType="center">
        <lane id="d_0" index="0" allow="rail_urban" speed="27.78" length="98.03" shape="201.97,-100.00 300.00,-100.00"/>
    </edge>
    <edge id="m" from="2" to="20" priority="-1" spreadType="center">
        <lane id="m_0" index="0" allow="rail_urban" speed="27.78" length="65.53" shape="5.91,-96.25 61.23,-61.12"/>
    </edge>
    <edge id="n" from="3" to="21" priority="-1" spreadType="center">
        <lane id="n_0" index="0" allow="rail_urban" speed="27.78" length="66.61" shape="94.12,-103.76 37.98,-139.60"/>
    </edge>
    <edge id="o" from="22" to="4" priority="-1" spreadType="center">
        <lane id="o_0" index="0" allow="rail_urban" speed="27.78" length="68.86" shape="136.00,-140.72 194.10,-103.76"/>
    </edge>
    <edge id="p" from="23" to="3" priority="-1" spreadType="center">
        <lane id="p_0" index="0" allow="rail_urban" speed="27.78" length="60.21" shape="156.71,-63.94 105.91,-96.24"/>
    </edge>

    <junction id="1" type="dead_end" x="-100.00" y="-100.00" incLanes="" intLanes="" shape="-100.00,-98.40 -100.00,-101.60"/>
    <junction id="2" type="priority" x="0.00" y="-100.00" incLanes="b_0 a_0" intLanes=":2_0_0 :2_1_0" shape="5.06,-94.89 6.77,-97.60 7.00,-98.40 7.00,-101.60 -1.97,-101.60 -1.97,-98.40 0.86,-97.96 1.77,-97.44 2.64,-96.74 3.66,-95.88">
        <request index="0" response="10" foes="10" cont="0"/>
        <request index="1" response="00" foes="01" cont="0"/>
    </junction>
    <junction id="20" type="dead_end" x="61.23" y="-61.12" incLanes="m_0" intLanes="" shape="62.09,-62.47 60.37,-59.77"/>
    <junction id="21" type="dead_end" x="37.98" y="-139.60" incLanes="n_0" intLanes="" shape="37.12,-138.25 38.84,-140.95"/>
    <junction id="22" type="dead_end" x="136.00" y="-140.72" incLanes="" intLanes="" shape="135.14,-139.37 136.86,-142.07"/>
    <junction id="23" type="dead_end" x="156.71" y="-63.94" incLanes="" intLanes="" shape="157.57,-65.29 155.85,-62.59"/>
    <junction id="3" type="priority" x="100.00" y="-100.00" incLanes="p_0 c_0" intLanes=":3_0_0 :3_1_0 :3_2_0 :3_4_0" shape="105.05,-94.89 106.76,-97.60 107.00,-98.40 107.00,-101.60 104.30,-101.63 102.27,-101.76 100.62,-102.09 99.05,-102.70 97.27,-103.68 94.98,-105.10 93.26,-102.41 93.02,-101.60 93.02,-98.40 95.72,-98.37 97.75,-98.24 99.40,-97.91 100.97,-97.30 102.76,-96.32">
        <request index="0" response="0000" foes="0100" cont="0"/>
        <request index="1" response="0000" foes="1100" cont="0"/>
        <request index="2" response="0011" foes="0011" cont="0"/>
        <request index="3" response="0010" foes="0010" cont="1"/>
    </junction>
    <junction id="4" type="priority" x="200.00" y="-100.00" incLanes="o_0" intLanes=":4_0_0" shape="201.97,-98.40 201.97,-101.60 199.14,-102.04 198.23,-102.56 197.37,-103.26 196.35,-104.12 194.96,-105.11 193.24,-102.41 193.00,-101.60 193.00,-98.40">
        <request index="0" response="0" foes="0" cont="0"/>
    </junction>
    <junction id="5" type="dead_end" x="300.00" y="-100.00" incLanes="d_0" intLanes="" shape="300.00,-101.60 300.00,-98.40"/>

    <junction id=":3_4_0" type="internal" x="102.28" y="-100.45" incLanes=":3_3_0 p_0" intLanes=":3_1_0"/>

    <connection from="a" to="m" fromLane="0" toLane="0" via=":2_1_0" dir="s" state="M"/>
    <connection from="b" to="m" fromLane="0" toLane="0" via=":2_0_0" dir="r" state="m"/>
    <connection from="c" to="b" fromLane="0" toLane="0" via=":3_2_0" dir="s" state="m"/>
    <connection from="c" to="n" fromLane="0" toLane="0" via=":3_3_0" dir="L" state="m"/>
    <connection from="o" to="d" fromLane="0" toLane="0" via=":4_0_0" dir="s" state="M"/>
    <connection from="p" to="b" fromLane="0" toLane="0" via=":3_0_0" dir="R" state="M"/>
    <connection from="p" to="n" fromLane="0" toLane="0" via=":3_1_0" dir="s" state="M"/>

    <connection from=":2_0" to="m" fromLane="0" toLane="0" dir="r" state="M"/>
    <connection from=":2_1" to="m" fromLane="0" toLane="0" dir="s" state="M"/>
    <connection from=":3_0" to="b" fromLane="0" toLane="0" dir="R" state="M"/>
    <connection from=":3_1" to="n" fromLane="0" toLane="0" dir="s" state="M"/>
    <connection from=":3_2" to="b" fromLane="0" toLane="0" dir="s" state="M"/>
    <connection from=":3_3" to="n" fromLane="0" toLane="0" via=":3_4_0" dir="L" state="m"/>
    <connection from=":3_4" to="n" fromLane="0" toLane="0" dir="L" state="M"/>
    <connection from=":4_0" to="d" fromLane="0" toLane="0" dir="s" state="M"/>

</net>
