<?xml version="1.0" encoding="UTF-8"?>

<!-- generated on 2023-02-16 15:45:41 by Eclipse SUMO netedit Version v1_16_0+0359-c8890ea5e3d
-->

<additional xmlns:xsi="http://www.w3.org/2001/XMLSchema-instance" xsi:noNamespaceSchemaLocation="http://sumo.dlr.de/xsd/additional_file.xsd">
    <!-- Calibrators -->
    <calibrator id="ca_0" edge="center1" pos="0.00" jamThreshold="7.70"/>
</additional>
