<?xml version="1.0" encoding="UTF-8"?>

<!-- generated on 2023-04-17 14:02:01 by Eclipse SUMO netedit Version v1_16_0+2120-e9fed2373cf
-->

<additional xmlns:xsi="http://www.w3.org/2001/XMLSchema-instance" xsi:noNamespaceSchemaLocation="http://sumo.dlr.de/xsd/additional_file.xsd">
    <!-- Detectors -->
    <entryExitDetector id="entryExitDetector_3" pos="16.00,10.00" period="100.00" file="fileA.txt">
        <detEntry lane="EdgeCenter1_0" pos="22.00"/>
        <detExit lane="EdgeCenter0_0" pos="22.00"/>
    </entryExitDetector>
</additional>
