<?xml version="1.0" encoding="UTF-8"?>

<!-- generated on Wed 04 Jul 2012 03:08:18 PM CEST by Netedit Version dev-SVN-r12454
<?xml version="1.0" encoding="UTF-8"?>

<configuration xmlns:xsi="http://www.w3.org/2001/XMLSchema-instance" xsi:noNamespaceSchemaLocation="http://sumo.dlr.de/xsd/netedit.exeConfiguration.xsd">

    <output>
        <plain-output-prefix value="/home/erdm_ja/debug/ramp_connection_bug/plain"/>
    </output>

    <processing>
        <no-turnarounds value="true"/>
        <offset.disable-normalization value="true"/>
    </processing>

</configuration>
-->

<edges version="0.13" xmlns:xsi="http://www.w3.org/2001/XMLSchema-instance" xsi:noNamespaceSchemaLocation="http://sumo.dlr.de/xsd/edges_file.xsd">
    <edge id="gneE0" from="gneJ0" to="gneJ1" priority="1" numLanes="3" speed="13.89" spreadType="center"/>
    <edge id="gneE1" from="gneJ1" to="gneJ2" priority="1" numLanes="2" speed="13.89" spreadType="center"/>
    <edge id="gneE2" from="gneJ1" to="gneJ3" priority="1" numLanes="1" speed="13.89" spreadType="center"/>
</edges>
