<?xml version="1.0" encoding="UTF-8"?>

<!-- generated on Fri Apr 16 14:29:22 2021 by Eclipse SUMO netconvert Version v1_9_0+0081-d468d72
This data file and the accompanying materials
are made available under the terms of the Eclipse Public License v2.0
which accompanies this distribution, and is available at
http://www.eclipse.org/legal/epl-v20.html
SPDX-License-Identifier: EPL-2.0
<configuration xmlns:xsi="http://www.w3.org/2001/XMLSchema-instance" xsi:noNamespaceSchemaLocation="http://sumo.dlr.de/xsd/netconvertConfiguration.xsd">

    <input>
        <node-files value="input_plain.nod.xml"/>
        <edge-files value="input_plain.edg.xml"/>
        <ptstop-files value="input_ptstops.xml"/>
        <ptline-files value="input_ptlines.xml"/>
    </input>

    <output>
        <write-license value="true"/>
        <ptstop-output value="additional.xml"/>
        <ptline-output value="ptlines.xml"/>
        <railway.topology.output value="topology.xml"/>
    </output>

    <railway>
        <railway.topology.repair value="true"/>
        <railway.topology.repair.stop-turn value="true"/>
    </railway>

    <report>
        <verbose value="true"/>
        <xml-validation value="never"/>
        <aggregate-warnings value="5"/>
    </report>

</configuration>
-->

<additional xmlns:xsi="http://www.w3.org/2001/XMLSchema-instance" xsi:noNamespaceSchemaLocation="http://sumo.dlr.de/xsd/additional_file.xsd">
    <busStop id="-stopA" name="Dudenstraße" lane="-a_0" startPos="15.30" endPos="85.30" friendlyPos="true">
        <access lane="gneE2_0" pos="134.46" length="91.76" friendlyPos="1"/>
    </busStop>
    <busStop id="-stopC" name="Kolonnenbrücke" lane="-c_0" startPos="30.00" endPos="80.00" friendlyPos="true">
        <access lane="gneE2_0" pos="38.89" length="151.40" friendlyPos="1"/>
    </busStop>
    <busStop id="stopA" name="Dudenstraße" lane="a_0" startPos="10.00" endPos="80.00" friendlyPos="true">
        <access lane="gneE2_0" pos="134.46" length="91.76" friendlyPos="1"/>
    </busStop>
    <busStop id="stopC" name="Kolonnenbrücke" lane="c_0" startPos="20.00" endPos="70.00" friendlyPos="true">
        <access lane="gneE2_0" pos="38.89" length="151.40" friendlyPos="1"/>
    </busStop>
</additional>
