<?xml version="1.0" encoding="UTF-8"?>

<!-- generated on 26.11.2018 12:07:42 by Eclipse SUMO netedit Version v1_0_1+0692-c9085b9bf1
<configuration xmlns:xsi="http://www.w3.org/2001/XMLSchema-instance" xsi:noNamespaceSchemaLocation="http://sumo.dlr.de/xsd/netconvertConfiguration.xsd">

    <input>
        <sumo-net-file value="C:/Users/SUMO-Test/.texttest/tmp/netedit.gui.26Nov083400.2640/netedit.gui/netElements/junctions/inspect/inspect_pos\input_net.net.xml"/>
    </input>

    <output>
        <output-file value="C:/Users/SUMO-Test/.texttest/tmp/netedit.gui.26Nov083400.2640/netedit.gui/netElements/junctions/inspect/inspect_pos\net.net.xml"/>
    </output>

    <processing>
        <offset.disable-normalization value="true"/>
        <lefthand value="false"/>
    </processing>

    <junctions>
        <no-internal-links value="false"/>
        <no-turnarounds value="true"/>
        <junctions.corner-detail value="5"/>
        <junctions.limit-turn-speed value="5.5"/>
        <rectangular-lane-cut value="false"/>
    </junctions>

    <pedestrian>
        <walkingareas value="false"/>
    </pedestrian>

    <netedit>
        <sumo-additionals-file value="C:/Users/SUMO-Test/.texttest/tmp/netedit.gui.26Nov083400.2640/netedit.gui/netElements/junctions/inspect/inspect_pos\input_additionals.add.xml"/>
        <additionals-output value="C:/Users/SUMO-Test/.texttest/tmp/netedit.gui.26Nov083400.2640/netedit.gui/netElements/junctions/inspect/inspect_pos\additionals.xml"/>
        <shapes-output value="C:/Users/SUMO-Test/.texttest/tmp/netedit.gui.26Nov083400.2640/netedit.gui/netElements/junctions/inspect/inspect_pos\shapes.xml"/>
    </netedit>

    <visualisation>
        <gui-settings-file value="C:/Users/SUMO-Test/.texttest/tmp/netedit.gui.26Nov083400.2640/netedit.gui/netElements/junctions/inspect/inspect_pos\gui-settings.xml"/>
        <window-size value="700,500"/>
        <window-pos value="50,50"/>
        <gui-testing value="true"/>
        <gui-testing-debug value="true"/>
    </visualisation>

    <report>
        <no-warnings value="true"/>
        <error-log value="C:/Users/SUMO-Test/.texttest/tmp/netedit.gui.26Nov083400.2640/netedit.gui/netElements/junctions/inspect/inspect_pos\log.txt"/>
    </report>

</configuration>
-->

<net version="1.6" junctionCornerDetail="5" limitTurnSpeed="5.50" xmlns:xsi="http://www.w3.org/2001/XMLSchema-instance" xsi:noNamespaceSchemaLocation="http://sumo.dlr.de/xsd/net_file.xsd">

    <location netOffset="50.00,50.00" convBoundary="0.00,0.00,100.00,100.00" origBoundary="-50.00,-50.00,50.00,50.00" projParameter="!"/>

    <edge id=":A_0" function="internal">
        <lane id=":A_0_0" index="0" speed="3.65" length="4.67" shape="48.45,-0.39 49.51,-1.36 50.39,-1.55 51.07,-0.97 51.55,0.39"/>
    </edge>
    <edge id=":A_w0" function="walkingarea">
        <lane id=":A_w0_0" index="0" allow="pedestrian" speed="1.00" length="9.60" width="3.20" shape="50.00,-0.00 53.10,0.78 53.10,0.78 56.21,1.55 43.79,-1.55 46.90,-0.78 46.90,-0.78 50.00,-0.00"/>
    </edge>
    <edge id=":B_0" function="internal">
        <lane id=":B_0_0" index="0" speed="3.65" length="4.67" shape="51.58,99.74 50.99,101.05 50.26,101.58 49.41,101.32 48.42,100.26"/>
    </edge>
    <edge id=":B_w0" function="walkingarea">
        <lane id=":B_w0_0" index="0" allow="pedestrian" speed="1.00" length="9.60" width="3.20" shape="50.00,100.00 46.84,100.53 46.84,100.53 43.69,101.05 56.31,98.95 53.16,99.47 53.16,99.47 50.00,100.00"/>
    </edge>
    <edge id=":C_0" function="internal">
        <lane id=":C_0_0" index="0" speed="3.65" length="4.67" shape="0.39,51.55 -0.97,51.07 -1.55,50.39 -1.36,49.51 -0.39,48.45"/>
    </edge>
    <edge id=":C_w0" function="walkingarea">
        <lane id=":C_w0_0" index="0" allow="pedestrian" speed="1.00" length="9.60" width="3.20" shape="-0.00,50.00 -0.78,46.90 -0.78,46.90 -1.55,43.79 1.55,56.21 0.78,53.10 0.78,53.10 0.00,50.00"/>
    </edge>
    <edge id=":Center_0" function="internal">
        <lane id=":Center_0_0" index="0" speed="6.84" length="6.15" shape="37.40,53.57 36.49,50.31 35.05,48.18 34.88,48.09"/>
    </edge>
    <edge id=":Center_1" function="internal">
        <lane id=":Center_1_0" index="0" speed="13.90" length="24.92" shape="37.40,53.57 36.45,46.82 36.17,40.84 36.65,34.90 37.99,28.23"/>
        <lane id=":Center_1_1" index="1" speed="13.90" length="24.92" shape="40.55,53.05 39.60,46.49 39.30,40.97 39.76,35.47 41.10,29.01"/>
    </edge>
    <edge id=":Center_3" function="internal">
        <lane id=":Center_3_0" index="0" speed="8.88" length="8.00" shape="40.55,53.05 40.40,46.64 41.09,45.21"/>
    </edge>
    <edge id=":Center_4" function="internal">
        <lane id=":Center_4_0" index="0" speed="3.65" length="2.34" shape="40.55,53.05 41.14,51.73 41.87,51.21"/>
    </edge>
    <edge id=":Center_20" function="internal">
        <lane id=":Center_20_0" index="0" speed="6.84" length="4.54" shape="34.88,48.09 33.07,47.18 30.56,47.31"/>
    </edge>
    <edge id=":Center_21" function="internal">
        <lane id=":Center_21_0" index="0" speed="8.88" length="14.17" shape="41.09,45.21 42.43,42.43 46.64,40.40 53.05,40.55"/>
    </edge>
    <edge id=":Center_22" function="internal">
        <lane id=":Center_22_0" index="0" speed="3.65" length="2.34" shape="41.87,51.21 42.72,51.47 43.71,52.52"/>
    </edge>
    <edge id=":Center_5" function="internal">
        <lane id=":Center_5_0" index="0" speed="5.91" length="9.10" shape="51.99,46.87 49.37,46.80 47.63,47.63 46.80,49.37 46.87,51.99"/>
    </edge>
    <edge id=":Center_6" function="internal">
        <lane id=":Center_6_0" index="0" speed="13.90" length="22.33" shape="51.99,46.87 45.85,45.90 41.22,45.56 36.61,45.98 30.56,47.31"/>
        <lane id=":Center_6_1" index="1" speed="13.90" length="22.33" shape="52.52,43.71 46.17,42.75 41.09,42.43 36.04,42.87 29.78,44.20"/>
    </edge>
    <edge id=":Center_8" function="internal">
        <lane id=":Center_8_0" index="0" speed="9.48" length="7.62" shape="52.52,43.71 46.37,41.88 45.42,41.15"/>
    </edge>
    <edge id=":Center_9" function="internal">
        <lane id=":Center_9_0" index="0" speed="3.65" length="2.34" shape="52.52,43.71 51.47,42.72 51.21,41.87"/>
    </edge>
    <edge id=":Center_23" function="internal">
        <lane id=":Center_23_0" index="0" speed="9.48" length="13.98" shape="45.42,41.15 42.42,38.83 40.66,34.53 41.10,29.01"/>
    </edge>
    <edge id=":Center_24" function="internal">
        <lane id=":Center_24_0" index="0" speed="3.65" length="2.34" shape="51.21,41.87 51.73,41.14 53.05,40.55"/>
    </edge>
    <edge id=":Center_10" function="internal">
        <lane id=":Center_10_0" index="0" speed="6.84" length="7.67" shape="47.31,30.56 47.18,33.07 48.18,35.05 50.31,36.49 50.67,36.59"/>
    </edge>
    <edge id=":Center_11" function="internal">
        <lane id=":Center_11_0" index="0" speed="13.90" length="22.33" shape="47.31,30.56 45.98,36.61 45.56,41.22 45.90,45.85 46.87,51.99"/>
        <lane id=":Center_11_1" index="1" speed="13.90" length="22.33" shape="44.20,29.78 42.87,36.04 42.43,41.09 42.75,46.17 43.71,52.52"/>
    </edge>
    <edge id=":Center_13" function="internal">
        <lane id=":Center_13_0" index="0" speed="12.20" length="7.14" shape="44.20,29.78 42.22,35.01 41.30,36.26"/>
    </edge>
    <edge id=":Center_14" function="internal">
        <lane id=":Center_14_0" index="0" speed="3.65" length="2.34" shape="44.20,29.78 43.14,30.75 42.26,30.95"/>
    </edge>
    <edge id=":Center_25" function="internal">
        <lane id=":Center_25_0" index="0" speed="6.84" length="3.02" shape="50.67,36.59 53.57,37.40"/>
    </edge>
    <edge id=":Center_26" function="internal">
        <lane id=":Center_26_0" index="0" speed="12.20" length="14.35" shape="41.30,36.26 39.16,39.16 35.01,42.22 29.78,44.20"/>
    </edge>
    <edge id=":Center_27" function="internal">
        <lane id=":Center_27_0" index="0" speed="3.65" length="2.34" shape="42.26,30.95 41.58,30.36 41.10,29.01"/>
    </edge>
    <edge id=":Center_15" function="internal">
        <lane id=":Center_15_0" index="0" speed="10.11" length="14.55" shape="28.23,37.99 31.77,36.65 34.58,34.58 36.65,31.77 37.99,28.23"/>
    </edge>
    <edge id=":Center_16" function="internal">
        <lane id=":Center_16_0" index="0" speed="13.90" length="24.92" shape="28.23,37.99 34.90,36.65 40.84,36.17 46.82,36.45 53.57,37.40"/>
        <lane id=":Center_16_1" index="1" speed="13.90" length="24.92" shape="29.01,41.10 35.47,39.76 40.97,39.30 46.49,39.60 53.05,40.55"/>
    </edge>
    <edge id=":Center_18" function="internal">
        <lane id=":Center_18_0" index="0" speed="9.48" length="7.15" shape="29.01,41.10 34.53,40.66 36.02,41.27"/>
    </edge>
    <edge id=":Center_19" function="internal">
        <lane id=":Center_19_0" index="0" speed="3.65" length="2.34" shape="29.01,41.10 30.36,41.58 30.95,42.26"/>
    </edge>
    <edge id=":Center_28" function="internal">
        <lane id=":Center_28_0" index="0" speed="9.48" length="14.45" shape="36.02,41.27 38.83,42.42 41.88,46.37 43.71,52.52"/>
    </edge>
    <edge id=":Center_29" function="internal">
        <lane id=":Center_29_0" index="0" speed="3.65" length="2.34" shape="30.95,42.26 30.75,43.14 29.78,44.20"/>
    </edge>
    <edge id=":Center_c0" function="crossing" crossingEdges="4 8">
        <lane id=":Center_c0_0" index="0" allow="pedestrian" speed="1.00" length="12.80" width="3.00" shape="52.36,35.57 50.25,48.20"/>
    </edge>
    <edge id=":Center_c1" function="crossing" crossingEdges="3 7">
        <lane id=":Center_c1_0" index="0" allow="pedestrian" speed="1.00" length="12.80" width="4.00" shape="32.89,48.38 29.78,35.96"/>
    </edge>
    <edge id=":Center_w0" function="walkingarea">
        <lane id=":Center_w0_0" index="0" allow="pedestrian" speed="1.00" length="18.17" width="3.20" shape="35.82,53.84 38.97,53.31 38.97,53.31 42.13,52.78 42.13,52.78 45.29,52.26 45.29,52.26 48.44,51.73 51.73,48.44 52.26,45.29 52.26,45.29 52.78,42.13 52.78,42.13 53.31,38.97 53.31,38.97 53.84,35.82 48.86,30.95 45.76,30.17 45.76,30.17 42.65,29.39 42.65,29.39 39.55,28.62 39.55,28.62 36.44,27.84 27.84,36.44 28.62,39.55 28.62,39.55 29.39,42.65 29.39,42.65 30.17,45.76 30.17,45.76 30.95,48.86 35.41,52.05 34.84,50.64 34.10,49.62 33.21,48.98 32.16,48.73"/>
    </edge>
    <edge id=":Center_w1" function="walkingarea">
        <lane id=":Center_w1_0" index="0" allow="pedestrian" speed="1.00" length="17.37" width="3.00" shape="48.77,47.95 51.73,48.44 31.43,48.74 34.34,48.01"/>
    </edge>
    <edge id=":Center_w2" function="walkingarea">
        <lane id=":Center_w2_0" index="0" allow="pedestrian" speed="1.00" length="22.58" width="4.00" shape="31.72,35.47 27.84,36.44 54.33,35.90 50.38,35.24"/>
    </edge>
    <edge id=":D_0" function="internal">
        <lane id=":D_0_0" index="0" speed="3.65" length="4.67" shape="100.26,48.42 101.32,49.41 101.58,50.26 101.05,50.99 99.74,51.58"/>
    </edge>
    <edge id=":D_w0" function="walkingarea">
        <lane id=":D_w0_0" index="0" allow="pedestrian" speed="1.00" length="9.60" width="3.20" shape="100.00,50.00 99.47,53.16 99.47,53.16 98.95,56.31 101.05,43.69 100.53,46.84 100.53,46.84 100.00,50.00"/>
    </edge>

    <edge id="1" from="Center" to="A" priority="-1">
        <lane id="1_0" index="0" speed="13.90" length="30.30" shape="37.99,28.23 45.34,-1.16"/>
        <lane id="1_1" index="1" speed="13.90" length="30.30" shape="41.10,29.01 48.45,-0.39"/>
    </edge>
    <edge id="2" from="Center" to="B" priority="-1">
        <lane id="2_0" index="0" speed="13.90" length="47.87" shape="46.87,51.99 54.73,99.21"/>
        <lane id="2_1" index="1" speed="13.90" length="47.87" shape="43.71,52.52 51.58,99.74"/>
    </edge>
    <edge id="3" from="Center" to="C" priority="-1">
        <lane id="3_0" index="0" speed="13.90" length="30.30" shape="30.56,47.31 1.16,54.66"/>
        <lane id="3_1" index="1" speed="13.90" length="30.30" shape="29.78,44.20 0.39,51.55"/>
    </edge>
    <edge id="4" from="Center" to="D" priority="-1">
        <lane id="4_0" index="0" speed="13.90" length="47.87" shape="53.57,37.40 100.79,45.27"/>
        <lane id="4_1" index="1" speed="13.90" length="47.87" shape="53.05,40.55 100.26,48.42"/>
    </edge>
    <edge id="5" from="A" to="Center" priority="-1">
        <lane id="5_0" index="0" speed="13.90" length="30.30" shape="54.66,1.16 47.31,30.56"/>
        <lane id="5_1" index="1" speed="13.90" length="30.30" shape="51.55,0.39 44.20,29.78"/>
    </edge>
    <edge id="6" from="B" to="Center" priority="-1">
        <lane id="6_0" index="0" speed="13.90" length="47.87" shape="45.27,100.79 37.40,53.57"/>
        <lane id="6_1" index="1" speed="13.90" length="47.87" shape="48.42,100.26 40.55,53.05"/>
    </edge>
    <edge id="7" from="C" to="Center" priority="-1">
        <lane id="7_0" index="0" speed="13.90" length="30.30" shape="-1.16,45.34 28.23,37.99"/>
        <lane id="7_1" index="1" speed="13.90" length="30.30" shape="-0.39,48.45 29.01,41.10"/>
    </edge>
    <edge id="8" from="D" to="Center" priority="-1">
        <lane id="8_0" index="0" speed="13.90" length="47.87" shape="99.21,54.73 51.99,46.87"/>
        <lane id="8_1" index="1" speed="13.90" length="47.87" shape="99.74,51.58 52.52,43.71"/>
    </edge>

    <tlLogic id="Center" type="static" programID="0" offset="0">
        <phase duration="37" state="gGGggrrrrrgGGggrrrrrGG"/>
        <phase duration="5"  state="gGGggrrrrrgGGggrrrrrrr"/>
        <phase duration="3"  state="yyyyyrrrrryyyyyrrrrrrr"/>
        <phase duration="42" state="rrrrrGGGggrrrrrGGGggrr"/>
        <phase duration="3"  state="rrrrryyyyyrrrrryyyyyrr"/>
    </tlLogic>

    <junction id="A" type="priority" x="50.00" y="0.00" incLanes="1_0 1_1" intLanes=":A_0_0" shape="50.00,0.00 43.79,-1.55 50.00,0.00">
        <request index="0" response="0" foes="0" cont="0"/>
    </junction>
    <junction id="B" type="priority" x="50.00" y="100.00" incLanes="2_0 2_1" intLanes=":B_0_0" shape="50.00,100.00 56.31,98.95 50.00,100.00">
        <request index="0" response="0" foes="0" cont="0"/>
    </junction>
    <junction id="C" type="priority" x="0.00" y="50.00" incLanes="3_0 3_1" intLanes=":C_0_0" shape="0.00,50.00 1.55,56.21 0.00,50.00">
        <request index="0" response="0" foes="0" cont="0"/>
    </junction>
    <junction id="Center" type="traffic_light" x="40.00" y="40.00" incLanes="6_0 6_1 8_0 8_1 5_0 5_1 7_0 7_1 :Center_w2_0 :Center_w1_0" intLanes=":Center_20_0 :Center_1_0 :Center_1_1 :Center_21_0 :Center_22_0 :Center_5_0 :Center_6_0 :Center_6_1 :Center_23_0 :Center_24_0 :Center_25_0 :Center_11_0 :Center_11_1 :Center_26_0 :Center_27_0 :Center_15_0 :Center_16_0 :Center_16_1 :Center_28_0 :Center_29_0 :Center_c0_0 :Center_c1_0" shape="35.82,53.84 48.44,51.73 48.52,49.61 48.94,48.94 49.61,48.52 50.54,48.35 51.73,48.44 53.84,35.82 50.64,34.84 49.62,34.10 48.98,33.21 48.73,32.16 48.86,30.95 36.44,27.84 35.73,29.99 34.72,31.86 33.43,33.43 31.86,34.72 29.99,35.73 27.84,36.44 30.95,48.86 33.21,48.98 34.10,49.62 34.84,50.64 35.41,52.05">
        <request index="0"  response="1000000000000011000000" foes="1000000000000011000000" cont="1"/>
        <request index="1"  response="0001111000000111000000" foes="0001111110000111000000" cont="0"/>
        <request index="2"  response="0001111000000111000000" foes="0001111110000111000000" cont="0"/>
        <request index="3"  response="0101110001100111000000" foes="0101110001101111000000" cont="1"/>
        <request index="4"  response="0001000001100000000000" foes="0001000001100000000000" cont="1"/>
        <request index="5"  response="0100000000000000000000" foes="0100000001100000000000" cont="0"/>
        <request index="6"  response="1100000010000000001001" foes="1111000011100000001111" cont="0"/>
        <request index="7"  response="1100000010000000001001" foes="1111000011100000001111" cont="0"/>
        <request index="8"  response="0100110010000000001000" foes="0100110111100000001110" cont="1"/>
        <request index="9"  response="0100110000000000001000" foes="0100110000000000001000" cont="1"/>
        <request index="10" response="0100110000000000000000" foes="0100110000000000000000" cont="1"/>
        <request index="11" response="0001110000000111100000" foes="0001110000000111111000" cont="0"/>
        <request index="12" response="0001110000000111100000" foes="0001110000000111111000" cont="0"/>
        <request index="13" response="1001110000000111000110" foes="1011110000000111000110" cont="1"/>
        <request index="14" response="0000000000000100000110" foes="0000000000000100000110" cont="1"/>
        <request index="15" response="1000000000000000000000" foes="1000000000000000000110" cont="0"/>
        <request index="16" response="1100000010010000001000" foes="1100000011111100001110" cont="0"/>
        <request index="17" response="1100000010010000001000" foes="1100000011111100001110" cont="0"/>
        <request index="18" response="1000000010000011001000" foes="1000000011100011011110" cont="1"/>
        <request index="19" response="1000000010000011000000" foes="1000000010000011000000" cont="1"/>
        <request index="20" response="0000000000000000000000" foes="0000110000011111101000" cont="0"/>
        <request index="21" response="0000000000000000000000" foes="0011111010000011000001" cont="0"/>
    </junction>
    <junction id="D" type="priority" x="100.00" y="50.00" incLanes="4_0 4_1" intLanes=":D_0_0" shape="100.00,50.00 101.05,43.69 100.00,50.00">
        <request index="0" response="0" foes="0" cont="0"/>
    </junction>

    <junction id=":Center_20_0" type="internal" x="34.88" y="48.09" incLanes=":Center_0_0" intLanes=":Center_6_0 :Center_6_1 :Center_13_0 :Center_19_0 :Center_c1_0"/>
    <junction id=":Center_21_0" type="internal" x="41.09" y="45.21" incLanes=":Center_3_0 5_0 5_1" intLanes=":Center_6_0 :Center_6_1 :Center_8_0 :Center_9_0 :Center_10_0 :Center_11_0 :Center_11_1 :Center_16_0 :Center_16_1 :Center_18_0 :Center_c0_0"/>
    <junction id=":Center_22_0" type="internal" x="41.87" y="51.21" incLanes=":Center_4_0 5_0 5_1 7_1 8_0" intLanes=":Center_5_0 :Center_11_0 :Center_11_1 :Center_18_0"/>
    <junction id=":Center_23_0" type="internal" x="45.42" y="41.15" incLanes=":Center_8_0 7_0 7_1" intLanes=":Center_1_0 :Center_1_1 :Center_3_0 :Center_11_0 :Center_11_1 :Center_13_0 :Center_14_0 :Center_15_0 :Center_16_0 :Center_16_1 :Center_c0_0"/>
    <junction id=":Center_24_0" type="internal" x="51.21" y="41.87" incLanes=":Center_9_0 5_0 6_1 7_0 7_1" intLanes=":Center_3_0 :Center_10_0 :Center_16_0 :Center_16_1 :Center_c0_0 :Center_c0_0"/>
    <junction id=":Center_25_0" type="internal" x="50.67" y="36.59" incLanes=":Center_10_0" intLanes=":Center_3_0 :Center_9_0 :Center_16_0 :Center_16_1 :Center_c0_0"/>
    <junction id=":Center_26_0" type="internal" x="41.30" y="36.26" incLanes=":Center_13_0 6_0 6_1" intLanes=":Center_0_0 :Center_1_0 :Center_1_1 :Center_6_0 :Center_6_1 :Center_8_0 :Center_16_0 :Center_16_1 :Center_18_0 :Center_19_0 :Center_c1_0"/>
    <junction id=":Center_27_0" type="internal" x="42.26" y="30.95" incLanes=":Center_14_0 6_0 6_1 7_0 8_1" intLanes=":Center_1_0 :Center_1_1 :Center_8_0 :Center_15_0"/>
    <junction id=":Center_28_0" type="internal" x="36.02" y="41.27" incLanes=":Center_18_0 8_0 8_1" intLanes=":Center_1_0 :Center_1_1 :Center_3_0 :Center_4_0 :Center_5_0 :Center_6_0 :Center_6_1 :Center_11_0 :Center_11_1 :Center_13_0 :Center_c1_0"/>
    <junction id=":Center_29_0" type="internal" x="30.95" y="42.26" incLanes=":Center_19_0 5_1 6_0 8_0 8_1" intLanes=":Center_0_0 :Center_6_0 :Center_6_1 :Center_13_0 :Center_c1_0 :Center_c1_0"/>

    <connection from="1" to="5" fromLane="1" toLane="1" via=":A_0_0" dir="t" state="M"/>
    <connection from="2" to="6" fromLane="1" toLane="1" via=":B_0_0" dir="t" state="M"/>
    <connection from="3" to="7" fromLane="1" toLane="1" via=":C_0_0" dir="t" state="M"/>
    <connection from="4" to="8" fromLane="1" toLane="1" via=":D_0_0" dir="t" state="M"/>
    <connection from="5" to="4" fromLane="0" toLane="0" via=":Center_10_0" tl="Center" linkIndex="10" dir="r" state="o"/>
    <connection from="5" to="2" fromLane="0" toLane="0" via=":Center_11_0" tl="Center" linkIndex="11" dir="s" state="o"/>
    <connection from="5" to="2" fromLane="1" toLane="1" via=":Center_11_1" tl="Center" linkIndex="12" dir="s" state="o"/>
    <connection from="5" to="3" fromLane="1" toLane="1" via=":Center_13_0" tl="Center" linkIndex="13" dir="l" state="o"/>
    <connection from="5" to="1" fromLane="1" toLane="1" via=":Center_14_0" tl="Center" linkIndex="14" dir="t" state="o"/>
    <connection from="6" to="3" fromLane="0" toLane="0" via=":Center_0_0" tl="Center" linkIndex="0" dir="r" state="o"/>
    <connection from="6" to="1" fromLane="0" toLane="0" via=":Center_1_0" tl="Center" linkIndex="1" dir="s" state="o"/>
    <connection from="6" to="1" fromLane="1" toLane="1" via=":Center_1_1" tl="Center" linkIndex="2" dir="s" state="o"/>
    <connection from="6" to="4" fromLane="1" toLane="1" via=":Center_3_0" tl="Center" linkIndex="3" dir="l" state="o"/>
    <connection from="6" to="2" fromLane="1" toLane="1" via=":Center_4_0" tl="Center" linkIndex="4" dir="t" state="o"/>
    <connection from="7" to="1" fromLane="0" toLane="0" via=":Center_15_0" tl="Center" linkIndex="15" dir="r" state="o"/>
    <connection from="7" to="4" fromLane="0" toLane="0" via=":Center_16_0" tl="Center" linkIndex="16" dir="s" state="o"/>
    <connection from="7" to="4" fromLane="1" toLane="1" via=":Center_16_1" tl="Center" linkIndex="17" dir="s" state="o"/>
    <connection from="7" to="2" fromLane="1" toLane="1" via=":Center_18_0" tl="Center" linkIndex="18" dir="l" state="o"/>
    <connection from="7" to="3" fromLane="1" toLane="1" via=":Center_19_0" tl="Center" linkIndex="19" dir="t" state="o"/>
    <connection from="8" to="2" fromLane="0" toLane="0" via=":Center_5_0" tl="Center" linkIndex="5" dir="r" state="o"/>
    <connection from="8" to="3" fromLane="0" toLane="0" via=":Center_6_0" tl="Center" linkIndex="6" dir="s" state="o"/>
    <connection from="8" to="3" fromLane="1" toLane="1" via=":Center_6_1" tl="Center" linkIndex="7" dir="s" state="o"/>
    <connection from="8" to="1" fromLane="1" toLane="1" via=":Center_8_0" tl="Center" linkIndex="8" dir="l" state="o"/>
    <connection from="8" to="4" fromLane="1" toLane="1" via=":Center_9_0" tl="Center" linkIndex="9" dir="t" state="o"/>

    <connection from=":A_0" to="5" fromLane="0" toLane="1" dir="t" state="M"/>
    <connection from=":B_0" to="6" fromLane="0" toLane="1" dir="t" state="M"/>
    <connection from=":C_0" to="7" fromLane="0" toLane="1" dir="t" state="M"/>
    <connection from=":Center_0" to="3" fromLane="0" toLane="0" via=":Center_20_0" dir="r" state="m"/>
    <connection from=":Center_20" to="3" fromLane="0" toLane="0" dir="r" state="M"/>
    <connection from=":Center_1" to="1" fromLane="0" toLane="0" dir="s" state="M"/>
    <connection from=":Center_1" to="1" fromLane="1" toLane="1" dir="s" state="M"/>
    <connection from=":Center_3" to="4" fromLane="0" toLane="1" via=":Center_21_0" dir="l" state="m"/>
    <connection from=":Center_21" to="4" fromLane="0" toLane="1" dir="l" state="M"/>
    <connection from=":Center_4" to="2" fromLane="0" toLane="1" via=":Center_22_0" dir="t" state="m"/>
    <connection from=":Center_22" to="2" fromLane="0" toLane="1" dir="t" state="M"/>
    <connection from=":Center_5" to="2" fromLane="0" toLane="0" dir="r" state="M"/>
    <connection from=":Center_6" to="3" fromLane="0" toLane="0" dir="s" state="M"/>
    <connection from=":Center_6" to="3" fromLane="1" toLane="1" dir="s" state="M"/>
    <connection from=":Center_8" to="1" fromLane="0" toLane="1" via=":Center_23_0" dir="l" state="m"/>
    <connection from=":Center_23" to="1" fromLane="0" toLane="1" dir="l" state="M"/>
    <connection from=":Center_9" to="4" fromLane="0" toLane="1" via=":Center_24_0" dir="t" state="m"/>
    <connection from=":Center_24" to="4" fromLane="0" toLane="1" dir="t" state="M"/>
    <connection from=":Center_10" to="4" fromLane="0" toLane="0" via=":Center_25_0" dir="r" state="m"/>
    <connection from=":Center_25" to="4" fromLane="0" toLane="0" dir="r" state="M"/>
    <connection from=":Center_11" to="2" fromLane="0" toLane="0" dir="s" state="M"/>
    <connection from=":Center_11" to="2" fromLane="1" toLane="1" dir="s" state="M"/>
    <connection from=":Center_13" to="3" fromLane="0" toLane="1" via=":Center_26_0" dir="l" state="m"/>
    <connection from=":Center_26" to="3" fromLane="0" toLane="1" dir="l" state="M"/>
    <connection from=":Center_14" to="1" fromLane="0" toLane="1" via=":Center_27_0" dir="t" state="m"/>
    <connection from=":Center_27" to="1" fromLane="0" toLane="1" dir="t" state="M"/>
    <connection from=":Center_15" to="1" fromLane="0" toLane="0" dir="r" state="M"/>
    <connection from=":Center_16" to="4" fromLane="0" toLane="0" dir="s" state="M"/>
    <connection from=":Center_16" to="4" fromLane="1" toLane="1" dir="s" state="M"/>
    <connection from=":Center_18" to="2" fromLane="0" toLane="1" via=":Center_28_0" dir="l" state="m"/>
    <connection from=":Center_28" to="2" fromLane="0" toLane="1" dir="l" state="M"/>
    <connection from=":Center_19" to="3" fromLane="0" toLane="1" via=":Center_29_0" dir="t" state="m"/>
    <connection from=":Center_29" to="3" fromLane="0" toLane="1" dir="t" state="M"/>
    <connection from=":D_0" to="8" fromLane="0" toLane="1" dir="t" state="M"/>

    <connection from=":A_w0" to="5" fromLane="0" toLane="0" dir="s" state="M"/>
    <connection from="1" to=":A_w0" fromLane="0" toLane="0" dir="s" state="M"/>
    <connection from=":B_w0" to="6" fromLane="0" toLane="0" dir="s" state="M"/>
    <connection from="2" to=":B_w0" fromLane="0" toLane="0" dir="s" state="M"/>
    <connection from=":C_w0" to="7" fromLane="0" toLane="0" dir="s" state="M"/>
    <connection from="3" to=":C_w0" fromLane="0" toLane="0" dir="s" state="M"/>
    <connection from=":Center_c0" to=":Center_w1" fromLane="0" toLane="0" dir="s" state="M"/>
    <connection from=":Center_c1" to=":Center_w2" fromLane="0" toLane="0" dir="s" state="M"/>
    <connection from=":Center_w0" to="2" fromLane="0" toLane="0" dir="s" state="M"/>
    <connection from=":Center_w0" to="4" fromLane="0" toLane="0" dir="s" state="M"/>
    <connection from=":Center_w0" to="1" fromLane="0" toLane="0" dir="s" state="M"/>
    <connection from=":Center_w0" to="3" fromLane="0" toLane="0" dir="s" state="M"/>
    <connection from="6" to=":Center_w0" fromLane="0" toLane="0" dir="s" state="M"/>
    <connection from="8" to=":Center_w0" fromLane="0" toLane="0" dir="s" state="M"/>
    <connection from="5" to=":Center_w0" fromLane="0" toLane="0" dir="s" state="M"/>
    <connection from="7" to=":Center_w0" fromLane="0" toLane="0" dir="s" state="M"/>
    <connection from=":Center_w1" to=":Center_c1" fromLane="0" toLane="0" tl="Center" linkIndex="21" dir="s" state="M"/>
    <connection from=":Center_w2" to=":Center_c0" fromLane="0" toLane="0" tl="Center" linkIndex="20" dir="s" state="M"/>
    <connection from=":D_w0" to="8" fromLane="0" toLane="0" dir="s" state="M"/>
    <connection from="4" to=":D_w0" fromLane="0" toLane="0" dir="s" state="M"/>
</net>
