<routes>
    <vType id="DEFAULT_VEHTYPE" sigma="0"/>

    <route id="r0" edges="WC CE"/>

    <vehicle id="stopped"  route="r0" departPos="40" depart="0" departSpeed="max">
        <stop lane=":C_1_0" endPos="1" duration="100"/>
    </vehicle>
    <vehicle id="overtaking" route="r0" departPos="0"  depart="0" arrivalLane="1" departSpeed="max"/>

</routes>
