<?xml version="1.0" encoding="UTF-8"?>

<!-- generated on Thu Dec 12 07:35:14 2013 by SUMO netconvert Version dev-SVN-r15319
<?xml version="1.0" encoding="UTF-8"?>

<configuration xmlns:xsi="http://www.w3.org/2001/XMLSchema-instance" xsi:noNamespaceSchemaLocation="http://sumo.dlr.de/xsd/netconvertConfiguration.xsd">

    <input>
        <node-files value="input_nodes.nod.xml"/>
        <edge-files value="input_edges.edg.xml"/>
    </input>

    <output>
        <output-file value="net.net.xml"/>
    </output>

    <processing>
        <speed-in-kmh value="true"/>
        <no-turnarounds value="true"/>
    </processing>

</configuration>
-->

<net version="0.13" xmlns:xsi="http://www.w3.org/2001/XMLSchema-instance" xsi:noNamespaceSchemaLocation="http://sumo.dlr.de/xsd/net_file.xsd">

    <location netOffset="500.00,500.00" convBoundary="0.00,0.00,1000.00,1000.00" origBoundary="-500.00,-500.00,500.00,500.00" projParameter="!"/>

    <edge id=":0_0" function="internal">
        <lane id=":0_0_0" index="0" speed="12.50" length="5.00" shape="491.75,511.35 491.56,509.99 490.98,509.02 490.01,508.44 488.65,508.25"/>
    </edge>
    <edge id=":0_1" function="internal">
        <lane id=":0_1_0" index="0" speed="12.50" length="22.70" shape="491.75,511.35 491.75,504.61 491.75,500.00 491.75,495.39 491.75,488.65"/>
        <lane id=":0_1_1" index="1" speed="12.50" length="22.70" shape="495.05,511.35 495.05,504.61 495.05,500.00 495.05,495.39 495.05,488.65"/>
        <lane id=":0_1_2" index="2" speed="12.50" length="22.70" shape="498.35,511.35 498.35,504.61 498.35,500.00 498.35,495.39 498.35,488.65"/>
    </edge>
    <edge id=":0_4" function="internal">
        <lane id=":0_4_0" index="0" speed="12.50" length="10.48" shape="498.35,511.35 499.16,505.66 501.60,501.60"/>
    </edge>
    <edge id=":0_16" function="internal">
        <lane id=":0_16_0" index="0" speed="12.50" length="10.48" shape="501.60,501.60 505.66,499.16 511.35,498.35"/>
    </edge>
    <edge id=":0_5" function="internal">
        <lane id=":0_5_0" index="0" speed="12.50" length="5.00" shape="511.35,508.25 509.99,508.44 509.02,509.02 508.44,509.99 508.25,511.35"/>
    </edge>
    <edge id=":0_6" function="internal">
        <lane id=":0_6_0" index="0" speed="12.50" length="22.70" shape="511.35,504.95 504.61,504.95 500.00,504.95 495.39,504.95 488.65,504.95"/>
    </edge>
    <edge id=":0_7" function="internal">
        <lane id=":0_7_0" index="0" speed="12.50" length="20.97" shape="511.35,501.65 505.66,500.84 501.60,498.40 499.16,494.34 498.35,488.65"/>
    </edge>
    <edge id=":0_8" function="internal">
        <lane id=":0_8_0" index="0" speed="12.50" length="5.00" shape="508.25,488.65 508.44,490.01 509.02,490.98 509.99,491.56 511.35,491.75"/>
    </edge>
    <edge id=":0_9" function="internal">
        <lane id=":0_9_0" index="0" speed="12.50" length="22.70" shape="508.25,488.65 508.25,495.39 508.25,500.00 508.25,504.61 508.25,511.35"/>
        <lane id=":0_9_1" index="1" speed="12.50" length="22.70" shape="504.95,488.65 504.95,495.39 504.95,500.00 504.95,504.61 504.95,511.35"/>
        <lane id=":0_9_2" index="2" speed="12.50" length="22.70" shape="501.65,488.65 501.65,495.39 501.65,500.00 501.65,504.61 501.65,511.35"/>
    </edge>
    <edge id=":0_12" function="internal">
        <lane id=":0_12_0" index="0" speed="12.50" length="10.48" shape="501.65,488.65 500.84,494.34 498.40,498.40"/>
    </edge>
    <edge id=":0_17" function="internal">
        <lane id=":0_17_0" index="0" speed="12.50" length="10.48" shape="498.40,498.40 494.34,500.84 488.65,501.65"/>
    </edge>
    <edge id=":0_13" function="internal">
        <lane id=":0_13_0" index="0" speed="12.50" length="5.00" shape="488.65,491.75 490.01,491.56 490.98,490.98 491.56,490.01 491.75,488.65"/>
    </edge>
    <edge id=":0_14" function="internal">
        <lane id=":0_14_0" index="0" speed="12.50" length="22.70" shape="488.65,495.05 495.39,495.05 500.00,495.05 504.61,495.05 511.35,495.05"/>
    </edge>
    <edge id=":0_15" function="internal">
        <lane id=":0_15_0" index="0" speed="12.50" length="20.97" shape="488.65,498.35 494.34,499.16 498.40,501.60 500.84,505.66 501.65,511.35"/>
    </edge>
    <edge id=":m1_0" function="internal">
        <lane id=":m1_0_0" index="0" speed="12.50" length="0.10" shape="250.00,491.75 250.00,491.75"/>
        <lane id=":m1_0_1" index="1" speed="12.50" length="0.10" shape="250.00,495.05 250.00,495.05"/>
        <lane id=":m1_0_2" index="2" speed="12.50" length="0.10" shape="250.00,498.35 250.00,498.35"/>
    </edge>
    <edge id=":m2_0" function="internal">
        <lane id=":m2_0_0" index="0" speed="12.50" length="0.10" shape="750.00,508.25 750.00,508.25"/>
        <lane id=":m2_0_1" index="1" speed="12.50" length="0.10" shape="750.00,504.95 750.00,504.95"/>
        <lane id=":m2_0_2" index="2" speed="12.50" length="0.10" shape="750.00,501.65 750.00,501.65"/>
    </edge>
    <edge id=":m3_0" function="internal">
        <lane id=":m3_0_0" index="0" speed="12.50" length="0.10" shape="508.25,250.00 508.25,250.00"/>
        <lane id=":m3_0_1" index="1" speed="12.50" length="0.10" shape="504.95,250.00 504.95,250.00"/>
        <lane id=":m3_0_2" index="2" speed="12.50" length="0.10" shape="501.65,250.00 501.65,250.00"/>
    </edge>
    <edge id=":m4_0" function="internal">
        <lane id=":m4_0_0" index="0" speed="12.50" length="0.10" shape="491.75,750.00 491.75,750.00"/>
        <lane id=":m4_0_1" index="1" speed="12.50" length="0.10" shape="495.05,750.00 495.05,750.00"/>
        <lane id=":m4_0_2" index="2" speed="12.50" length="0.10" shape="498.35,750.00 498.35,750.00"/>
    </edge>

    <edge id="1fi" from="1" to="m1" priority="2">
        <lane id="1fi_0" index="0" speed="11.11" length="250.00" shape="0.00,491.75 250.00,491.75"/>
        <lane id="1fi_1" index="1" speed="11.11" length="250.00" shape="0.00,495.05 250.00,495.05"/>
        <lane id="1fi_2" index="2" speed="11.11" length="250.00" shape="0.00,498.35 250.00,498.35"/>
    </edge>
    <edge id="1o" from="0" to="1" priority="1">
        <lane id="1o_0" index="0" speed="11.11" length="488.65" shape="488.65,508.25 0.00,508.25"/>
        <lane id="1o_1" index="1" speed="11.11" length="488.65" shape="488.65,504.95 0.00,504.95"/>
        <lane id="1o_2" index="2" speed="11.11" length="488.65" shape="488.65,501.65 0.00,501.65"/>
    </edge>
    <edge id="1si" from="m1" to="0" priority="3">
        <lane id="1si_0" index="0" speed="13.89" length="238.65" shape="250.00,491.75 488.65,491.75"/>
        <lane id="1si_1" index="1" speed="13.89" length="238.65" shape="250.00,495.05 488.65,495.05"/>
        <lane id="1si_2" index="2" speed="13.89" length="238.65" shape="250.00,498.35 488.65,498.35"/>
    </edge>
    <edge id="2fi" from="2" to="m2" priority="2">
        <lane id="2fi_0" index="0" speed="11.11" length="250.00" shape="1000.00,508.25 750.00,508.25"/>
        <lane id="2fi_1" index="1" speed="11.11" length="250.00" shape="1000.00,504.95 750.00,504.95"/>
        <lane id="2fi_2" index="2" speed="11.11" length="250.00" shape="1000.00,501.65 750.00,501.65"/>
    </edge>
    <edge id="2o" from="0" to="2" priority="1">
        <lane id="2o_0" index="0" speed="11.11" length="488.65" shape="511.35,491.75 1000.00,491.75"/>
        <lane id="2o_1" index="1" speed="11.11" length="488.65" shape="511.35,495.05 1000.00,495.05"/>
        <lane id="2o_2" index="2" speed="11.11" length="488.65" shape="511.35,498.35 1000.00,498.35"/>
    </edge>
    <edge id="2si" from="m2" to="0" priority="3">
        <lane id="2si_0" index="0" speed="13.89" length="238.65" shape="750.00,508.25 511.35,508.25"/>
        <lane id="2si_1" index="1" speed="13.89" length="238.65" shape="750.00,504.95 511.35,504.95"/>
        <lane id="2si_2" index="2" speed="13.89" length="238.65" shape="750.00,501.65 511.35,501.65"/>
    </edge>
    <edge id="3fi" from="3" to="m3" priority="2">
        <lane id="3fi_0" index="0" speed="11.11" length="250.00" shape="508.25,0.00 508.25,250.00"/>
        <lane id="3fi_1" index="1" speed="11.11" length="250.00" shape="504.95,0.00 504.95,250.00"/>
        <lane id="3fi_2" index="2" speed="11.11" length="250.00" shape="501.65,0.00 501.65,250.00"/>
    </edge>
    <edge id="3o" from="0" to="3" priority="1">
        <lane id="3o_0" index="0" speed="11.11" length="488.65" shape="491.75,488.65 491.75,0.00"/>
        <lane id="3o_1" index="1" speed="11.11" length="488.65" shape="495.05,488.65 495.05,0.00"/>
        <lane id="3o_2" index="2" speed="11.11" length="488.65" shape="498.35,488.65 498.35,0.00"/>
    </edge>
    <edge id="3si" from="m3" to="0" priority="3">
        <lane id="3si_0" index="0" speed="13.89" length="238.65" shape="508.25,250.00 508.25,488.65"/>
        <lane id="3si_1" index="1" speed="13.89" length="238.65" shape="504.95,250.00 504.95,488.65"/>
        <lane id="3si_2" index="2" speed="13.89" length="238.65" shape="501.65,250.00 501.65,488.65"/>
    </edge>
    <edge id="4fi" from="4" to="m4" priority="2">
        <lane id="4fi_0" index="0" speed="11.11" length="250.00" shape="491.75,1000.00 491.75,750.00"/>
        <lane id="4fi_1" index="1" speed="11.11" length="250.00" shape="495.05,1000.00 495.05,750.00"/>
        <lane id="4fi_2" index="2" speed="11.11" length="250.00" shape="498.35,1000.00 498.35,750.00"/>
    </edge>
    <edge id="4o" from="0" to="4" priority="1">
        <lane id="4o_0" index="0" speed="11.11" length="488.65" shape="508.25,511.35 508.25,1000.00"/>
        <lane id="4o_1" index="1" speed="11.11" length="488.65" shape="504.95,511.35 504.95,1000.00"/>
        <lane id="4o_2" index="2" speed="11.11" length="488.65" shape="501.65,511.35 501.65,1000.00"/>
    </edge>
    <edge id="4si" from="m4" to="0" priority="3">
        <lane id="4si_0" index="0" speed="13.89" length="238.65" shape="491.75,750.00 491.75,511.35"/>
        <lane id="4si_1" index="1" speed="13.89" length="238.65" shape="495.05,750.00 495.05,511.35"/>
        <lane id="4si_2" index="2" speed="13.89" length="238.65" shape="498.35,750.00 498.35,511.35"/>
    </edge>

    <junction id="0" type="priority" x="500.00" y="500.00" incLanes="4si_0 4si_1 4si_2 2si_0 2si_1 2si_2 3si_0 3si_1 3si_2 1si_0 1si_1 1si_2" intLanes=":0_0_0 :0_1_0 :0_1_1 :0_1_2 :0_16_0 :0_5_0 :0_6_0 :0_7_0 :0_8_0 :0_9_0 :0_9_1 :0_9_2 :0_17_0 :0_13_0 :0_14_0 :0_15_0" shape="490.15,511.35 509.85,511.35 511.35,509.85 511.35,490.15 509.85,488.65 490.15,488.65 488.65,490.15 488.65,509.85">
        <request index="0" response="0000000000000000" foes="0000000000000000" cont="0"/>
        <request index="1" response="0000000000000000" foes="1111000011000000" cont="0"/>
        <request index="2" response="0000000000000000" foes="1111000011000000" cont="0"/>
        <request index="3" response="0000000000000000" foes="1111000011000000" cont="0"/>
        <request index="4" response="0000111000000000" foes="1000111011000000" cont="1"/>
        <request index="5" response="0000111000000000" foes="1000111000000000" cont="0"/>
        <request index="6" response="0000111000011110" foes="1000111000011110" cont="0"/>
        <request index="7" response="0111111000011110" foes="0111111000011110" cont="0"/>
        <request index="8" response="0000000000000000" foes="0000000000000000" cont="0"/>
        <request index="9" response="0000000000000000" foes="1100000011110000" cont="0"/>
        <request index="10" response="0000000000000000" foes="1100000011110000" cont="0"/>
        <request index="11" response="0000000000000000" foes="1100000011110000" cont="0"/>
        <request index="12" response="0000000000001110" foes="1100000010001110" cont="1"/>
        <request index="13" response="0000000000001110" foes="0000000010001110" cont="0"/>
        <request index="14" response="0001111000001110" foes="0001111010001110" cont="0"/>
        <request index="15" response="0001111001111110" foes="0001111001111110" cont="0"/>
    </junction>
    <junction id="1" type="dead_end" x="0.00" y="500.00" incLanes="1o_0 1o_1 1o_2" intLanes="" shape="-0.00,499.95 -0.00,490.15 0.00,509.85 0.00,500.05"/>
    <junction id="2" type="dead_end" x="1000.00" y="500.00" incLanes="2o_0 2o_1 2o_2" intLanes="" shape="1000.00,500.05 1000.00,509.85 1000.00,490.15 1000.00,499.95"/>
    <junction id="3" type="dead_end" x="500.00" y="0.00" incLanes="3o_0 3o_1 3o_2" intLanes="" shape="500.05,-0.00 509.85,-0.00 490.15,0.00 499.95,0.00"/>
    <junction id="4" type="dead_end" x="500.00" y="1000.00" incLanes="4o_0 4o_1 4o_2" intLanes="" shape="499.95,1000.00 490.15,1000.00 509.85,1000.00 500.05,1000.00"/>
    <junction id="m1" type="priority" x="250.00" y="500.00" incLanes="1fi_0 1fi_1 1fi_2" intLanes=":m1_0_0 :m1_0_1 :m1_0_2" shape="250.00,499.95 250.00,490.15 250.00,499.95">
        <request index="0" response="000" foes="000" cont="0"/>
        <request index="1" response="000" foes="000" cont="0"/>
        <request index="2" response="000" foes="000" cont="0"/>
    </junction>
    <junction id="m2" type="priority" x="750.00" y="500.00" incLanes="2fi_0 2fi_1 2fi_2" intLanes=":m2_0_0 :m2_0_1 :m2_0_2" shape="750.00,509.85 750.00,500.05 750.00,509.85">
        <request index="0" response="000" foes="000" cont="0"/>
        <request index="1" response="000" foes="000" cont="0"/>
        <request index="2" response="000" foes="000" cont="0"/>
    </junction>
    <junction id="m3" type="priority" x="500.00" y="250.00" incLanes="3fi_0 3fi_1 3fi_2" intLanes=":m3_0_0 :m3_0_1 :m3_0_2" shape="500.05,250.00 509.85,250.00 500.05,250.00">
        <request index="0" response="000" foes="000" cont="0"/>
        <request index="1" response="000" foes="000" cont="0"/>
        <request index="2" response="000" foes="000" cont="0"/>
    </junction>
    <junction id="m4" type="priority" x="500.00" y="750.00" incLanes="4fi_0 4fi_1 4fi_2" intLanes=":m4_0_0 :m4_0_1 :m4_0_2" shape="490.15,750.00 499.95,750.00 490.15,750.00">
        <request index="0" response="000" foes="000" cont="0"/>
        <request index="1" response="000" foes="000" cont="0"/>
        <request index="2" response="000" foes="000" cont="0"/>
    </junction>

    <junction id=":0_16_0" type="internal" x="501.60" y="501.60" incLanes=":0_4_0 3si_0 3si_1 3si_2" intLanes=":0_6_0 :0_7_0 :0_9_0 :0_9_1 :0_9_2 :0_15_0"/>
    <junction id=":0_17_0" type="internal" x="498.40" y="498.40" incLanes=":0_12_0 4si_0 4si_1 4si_2" intLanes=":0_1_0 :0_1_1 :0_1_2 :0_7_0 :0_14_0 :0_15_0"/>

    <connection from="1fi" to="1si" fromLane="0" toLane="0" via=":m1_0_0" dir="s" state="M"/>
    <connection from="1fi" to="1si" fromLane="1" toLane="1" via=":m1_0_1" dir="s" state="M"/>
    <connection from="1fi" to="1si" fromLane="2" toLane="2" via=":m1_0_2" dir="s" state="M"/>
    <connection from="1si" to="3o" fromLane="0" toLane="0" via=":0_13_0" dir="r" state="m"/>
    <connection from="1si" to="2o" fromLane="1" toLane="1" via=":0_14_0" dir="s" state="m"/>
    <connection from="1si" to="4o" fromLane="2" toLane="2" via=":0_15_0" dir="l" state="m"/>
    <connection from="2fi" to="2si" fromLane="0" toLane="0" via=":m2_0_0" dir="s" state="M"/>
    <connection from="2fi" to="2si" fromLane="1" toLane="1" via=":m2_0_1" dir="s" state="M"/>
    <connection from="2fi" to="2si" fromLane="2" toLane="2" via=":m2_0_2" dir="s" state="M"/>
    <connection from="2si" to="4o" fromLane="0" toLane="0" via=":0_5_0" dir="r" state="m"/>
    <connection from="2si" to="1o" fromLane="1" toLane="1" via=":0_6_0" dir="s" state="m"/>
    <connection from="2si" to="3o" fromLane="2" toLane="2" via=":0_7_0" dir="l" state="m"/>
    <connection from="3fi" to="3si" fromLane="0" toLane="0" via=":m3_0_0" dir="s" state="M"/>
    <connection from="3fi" to="3si" fromLane="1" toLane="1" via=":m3_0_1" dir="s" state="M"/>
    <connection from="3fi" to="3si" fromLane="2" toLane="2" via=":m3_0_2" dir="s" state="M"/>
    <connection from="3si" to="2o" fromLane="0" toLane="0" via=":0_8_0" dir="r" state="M"/>
    <connection from="3si" to="4o" fromLane="0" toLane="0" via=":0_9_0" dir="s" state="M"/>
    <connection from="3si" to="4o" fromLane="1" toLane="1" via=":0_9_1" dir="s" state="M"/>
    <connection from="3si" to="4o" fromLane="2" toLane="2" via=":0_9_2" dir="s" state="M"/>
    <connection from="3si" to="1o" fromLane="2" toLane="2" via=":0_12_0" dir="l" state="m"/>
    <connection from="4fi" to="4si" fromLane="0" toLane="0" via=":m4_0_0" dir="s" state="M"/>
    <connection from="4fi" to="4si" fromLane="1" toLane="1" via=":m4_0_1" dir="s" state="M"/>
    <connection from="4fi" to="4si" fromLane="2" toLane="2" via=":m4_0_2" dir="s" state="M"/>
    <connection from="4si" to="1o" fromLane="0" toLane="0" via=":0_0_0" dir="r" state="M"/>
    <connection from="4si" to="3o" fromLane="0" toLane="0" via=":0_1_0" dir="s" state="M"/>
    <connection from="4si" to="3o" fromLane="1" toLane="1" via=":0_1_1" dir="s" state="M"/>
    <connection from="4si" to="3o" fromLane="2" toLane="2" via=":0_1_2" dir="s" state="M"/>
    <connection from="4si" to="2o" fromLane="2" toLane="2" via=":0_4_0" dir="l" state="m"/>

    <connection from=":0_0" to="1o" fromLane="0" toLane="0" dir="s" state="M"/>
    <connection from=":0_1" to="3o" fromLane="0" toLane="0" dir="s" state="M"/>
    <connection from=":0_1" to="3o" fromLane="1" toLane="1" dir="s" state="M"/>
    <connection from=":0_1" to="3o" fromLane="2" toLane="2" dir="s" state="M"/>
    <connection from=":0_4" to="2o" fromLane="0" toLane="2" via=":0_16_0" dir="s" state="m"/>
    <connection from=":0_16" to="2o" fromLane="0" toLane="2" dir="s" state="M"/>
    <connection from=":0_5" to="4o" fromLane="0" toLane="0" dir="s" state="M"/>
    <connection from=":0_6" to="1o" fromLane="0" toLane="1" dir="s" state="M"/>
    <connection from=":0_7" to="3o" fromLane="0" toLane="2" dir="s" state="M"/>
    <connection from=":0_8" to="2o" fromLane="0" toLane="0" dir="s" state="M"/>
    <connection from=":0_9" to="4o" fromLane="0" toLane="0" dir="s" state="M"/>
    <connection from=":0_9" to="4o" fromLane="1" toLane="1" dir="s" state="M"/>
    <connection from=":0_9" to="4o" fromLane="2" toLane="2" dir="s" state="M"/>
    <connection from=":0_12" to="1o" fromLane="0" toLane="2" via=":0_17_0" dir="s" state="m"/>
    <connection from=":0_17" to="1o" fromLane="0" toLane="2" dir="s" state="M"/>
    <connection from=":0_13" to="3o" fromLane="0" toLane="0" dir="s" state="M"/>
    <connection from=":0_14" to="2o" fromLane="0" toLane="1" dir="s" state="M"/>
    <connection from=":0_15" to="4o" fromLane="0" toLane="2" dir="s" state="M"/>
    <connection from=":m1_0" to="1si" fromLane="0" toLane="0" dir="s" state="M"/>
    <connection from=":m1_0" to="1si" fromLane="1" toLane="1" dir="s" state="M"/>
    <connection from=":m1_0" to="1si" fromLane="2" toLane="2" dir="s" state="M"/>
    <connection from=":m2_0" to="2si" fromLane="0" toLane="0" dir="s" state="M"/>
    <connection from=":m2_0" to="2si" fromLane="1" toLane="1" dir="s" state="M"/>
    <connection from=":m2_0" to="2si" fromLane="2" toLane="2" dir="s" state="M"/>
    <connection from=":m3_0" to="3si" fromLane="0" toLane="0" dir="s" state="M"/>
    <connection from=":m3_0" to="3si" fromLane="1" toLane="1" dir="s" state="M"/>
    <connection from=":m3_0" to="3si" fromLane="2" toLane="2" dir="s" state="M"/>
    <connection from=":m4_0" to="4si" fromLane="0" toLane="0" dir="s" state="M"/>
    <connection from=":m4_0" to="4si" fromLane="1" toLane="1" dir="s" state="M"/>
    <connection from=":m4_0" to="4si" fromLane="2" toLane="2" dir="s" state="M"/>

</net>
