<?xml version="1.0" encoding="UTF-8"?>

<!-- generated on 2022-06-28 13:48:16 by Eclipse SUMO netedit Version v1_13_0+1265-d2398f6c6e5
-->

<additional xmlns:xsi="http://www.w3.org/2001/XMLSchema-instance" xsi:noNamespaceSchemaLocation="http://sumo.dlr.de/xsd/additional_file.xsd">
    <!-- Detectors -->
    <e2Detector id="e2MultilaneDetector_0" lanes="gneE2_0 gneE14_0 gneE8_0 gneE0_0 gneE10_0 gneE11_0" pos="22.80" endPos="2.80" file="e2MultilaneDetector_0.xml"/>
    <e2Detector id="e2MultilaneDetector_1" lanes="gneE2_4 gneE4_0 gneE12_0 gneE7_0 gneE13_0" pos="32.80" endPos="2.80" file="e2MultilaneDetector_1.xml"/>
    <e2Detector id="e2MultilaneDetector_2" lanes="gneE13_0 gneE4_0 gneE2_4" pos="2.80" endPos="2.80" file="e2MultilaneDetector_2.xml"/>
    <e2Detector id="e2MultilaneDetector_3" lanes="gneE5_0 gneE6_0 gneE9_0 gneE1_0" pos="6.80" endPos="16.80" file="e2MultilaneDetector_3.xml"/>
    <e2Detector id="e2MultilaneDetector_4" lanes="gneE1_0 gneE5_0 gneE13_0 gneE4_0 gneE2_4" pos="36.80" endPos="22.80" file="e2MultilaneDetector_4.xml"/>
</additional>
