<?xml version="1.0" encoding="UTF-8"?>

<!-- generated on 02.10.2018 15:54:04 by Eclipse SUMO netedit Version v1_0_0+0003-85a2829977
<configuration xmlns:xsi="http://www.w3.org/2001/XMLSchema-instance" xsi:noNamespaceSchemaLocation="http://sumo.dlr.de/xsd/netconvertConfiguration.xsd">

    <input>
        <sumo-net-file value="D:\sumo\tests\netedit\additionalElements\e2MultiLaneDetector\volatileRecomputing\input_net.net.xml"/>
    </input>

    <output>
        <output-file value="D:\sumo\tests\netedit\additionalElements\e2MultiLaneDetector\volatileRecomputing\input_net.net.xml"/>
        <plain-output-prefix value="D:\sumo\tests\netedit\additionalElements\e2MultiLaneDetector\volatileRecomputing\input_net"/>
    </output>

    <processing>
        <offset.disable-normalization value="true"/>
        <lefthand value="false"/>
    </processing>

    <junctions>
        <no-turnarounds value="true"/>
        <junctions.corner-detail value="5"/>
        <junctions.limit-turn-speed value="5.5"/>
        <rectangular-lane-cut value="false"/>
    </junctions>

    <pedestrian>
        <walkingareas value="false"/>
    </pedestrian>

</configuration>
-->

<edges version="1.0" xmlns:xsi="http://www.w3.org/2001/XMLSchema-instance" xsi:noNamespaceSchemaLocation="http://sumo.dlr.de/xsd/edges_file.xsd">
    <edge id="gneE0" from="gneJ0" to="gneJ1" priority="1" numLanes="1" speed="13.89"/>
    <edge id="gneE1" from="gneJ1" to="gneJ0" priority="1" numLanes="1" speed="13.89"/>
    <edge id="gneE10" from="gneJ1" to="gneJ5" priority="-1" numLanes="1" speed="13.89"/>
    <edge id="gneE11" from="gneJ5" to="gneJ2" priority="-1" numLanes="1" speed="13.89"/>
    <edge id="gneE12" from="gneJ2" to="gneJ5" priority="-1" numLanes="1" speed="13.89"/>
    <edge id="gneE13" from="gneJ4" to="gneJ3" priority="-1" numLanes="1" speed="13.89"/>
    <edge id="gneE14" from="gneJ3" to="gneJ4" priority="-1" numLanes="1" speed="13.89"/>
    <edge id="gneE2" from="gneJ2" to="gneJ3" priority="1" numLanes="5" speed="13.89"/>
    <edge id="gneE4" from="gneJ3" to="gneJ2" priority="1" numLanes="1" speed="60.00"/>
    <edge id="gneE5" from="gneJ0" to="gneJ4" priority="-1" numLanes="1" speed="13.89"/>
    <edge id="gneE6" from="gneJ4" to="gneJ5" priority="-1" numLanes="1" speed="13.89"/>
    <edge id="gneE7" from="gneJ5" to="gneJ4" priority="-1" numLanes="1" speed="13.89"/>
    <edge id="gneE8" from="gneJ4" to="gneJ0" priority="-1" numLanes="1" speed="13.89"/>
    <edge id="gneE9" from="gneJ5" to="gneJ1" priority="-1" numLanes="1" speed="13.89"/>
</edges>
