<?xml version="1.0" encoding="UTF-8"?>

<!-- generated on 2021-11-12 11:00:12 by Eclipse SUMO netedit Version v1_10_0+2203-236f2afd936
<configuration xmlns:xsi="http://www.w3.org/2001/XMLSchema-instance" xsi:noNamespaceSchemaLocation="http://sumo.dlr.de/xsd/netconvertConfiguration.xsd">

    <input>
        <sumo-net-file value="C:\Users\SUMO-Test\.texttest\tmp\netedit.gui.12Nov104109.7120\netedit.gui\volatileRecomputing\sidewalks-and-crossings.guess\input_net.net.xml"/>
    </input>

    <output>
        <output-file value="C:\Users\SUMO-Test\.texttest\tmp\netedit.gui.12Nov104109.7120\netedit.gui\volatileRecomputing\sidewalks-and-crossings.guess\net.net.xml"/>
    </output>

    <processing>
        <geometry.min-radius.fix.railways value="false"/>
        <geometry.max-grade.fix value="false"/>
        <offset.disable-normalization value="true"/>
        <lefthand value="false"/>
    </processing>

    <junctions>
        <no-internal-links value="false"/>
        <no-turnarounds value="true"/>
        <junctions.corner-detail value="5"/>
        <junctions.limit-turn-speed value="5.5"/>
        <rectangular-lane-cut value="false"/>
    </junctions>

    <pedestrian>
        <sidewalks.guess value="true"/>
        <crossings.guess value="true"/>
        <walkingareas value="false"/>
    </pedestrian>

    <netedit>
        <additional-files value="C:\Users\SUMO-Test\.texttest\tmp\netedit.gui.12Nov104109.7120\netedit.gui\volatileRecomputing\sidewalks-and-crossings.guess\additionals.xml"/>
        <additionals-output value="C:\Users\SUMO-Test\.texttest\tmp\netedit.gui.12Nov104109.7120\netedit.gui\volatileRecomputing\sidewalks-and-crossings.guess\additionals.xml"/>
        <route-files value="C:\Users\SUMO-Test\.texttest\tmp\netedit.gui.12Nov104109.7120\netedit.gui\volatileRecomputing\sidewalks-and-crossings.guess\routes.xml"/>
        <demandelements-output value="C:\Users\SUMO-Test\.texttest\tmp\netedit.gui.12Nov104109.7120\netedit.gui\volatileRecomputing\sidewalks-and-crossings.guess\routes.xml"/>
        <data-files value="C:\Users\SUMO-Test\.texttest\tmp\netedit.gui.12Nov104109.7120\netedit.gui\volatileRecomputing\sidewalks-and-crossings.guess\datas.xml"/>
        <dataelements-output value="C:\Users\SUMO-Test\.texttest\tmp\netedit.gui.12Nov104109.7120\netedit.gui\volatileRecomputing\sidewalks-and-crossings.guess\datas.xml"/>
    </netedit>

    <visualisation>
        <gui-settings-file value="C:\Users\SUMO-Test\.texttest\tmp\netedit.gui.12Nov104109.7120\netedit.gui\volatileRecomputing\sidewalks-and-crossings.guess\gui-settings.xml"/>
        <window-size value="936,697"/>
        <window-pos value="50,50"/>
        <gui-testing value="true"/>
        <gui-testing-debug value="true"/>
        <gui-testing.setting-output value="C:\Users\SUMO-Test\.texttest\tmp\netedit.gui.12Nov104109.7120\netedit.gui\volatileRecomputing\sidewalks-and-crossings.guess\guisettingsoutput.xml"/>
    </visualisation>

    <report>
        <no-warnings value="true"/>
        <aggregate-warnings value="5"/>
        <error-log value="C:\Users\SUMO-Test\.texttest\tmp\netedit.gui.12Nov104109.7120\netedit.gui\volatileRecomputing\sidewalks-and-crossings.guess\log.txt"/>
    </report>

</configuration>
-->

<additional xmlns:xsi="http://www.w3.org/2001/XMLSchema-instance" xsi:noNamespaceSchemaLocation="http://sumo.dlr.de/xsd/additional_file.xsd">
    <busStop id="busStop_-gneE3_0_1" lane="-gneE3_0" startPos="2.50" endPos="7.50"/>
    <busStop id="busStop_-gneE4_0_2" lane="-gneE4_0" startPos="2.50" endPos="7.50"/>
    <busStop id="busStop_-gneE5_0_3" lane="-gneE5_0" startPos="2.50" endPos="7.50"/>
    <busStop id="busStop_-gneE6_0_4" lane="-gneE6_0" startPos="2.50" endPos="7.50"/>
    <busStop id="busStop_-gneE7_0_5" lane="-gneE7_0" startPos="2.50" endPos="7.50"/>
    <busStop id="busStop_gneE2_0_0" lane="gneE2_0" startPos="2.50" endPos="7.50"/>
    <busStop id="busStop_gneE4_0_7" lane="gneE4_0" startPos="2.50" endPos="7.50"/>
    <busStop id="busStop_gneE5_0_8" lane="gneE5_0" startPos="2.50" endPos="7.50"/>
    <busStop id="busStop_gneE6_0_9" lane="gneE6_0" startPos="2.50" endPos="7.50"/>
    <busStop id="busStop_gneE7_0_6" lane="gneE7_0" startPos="2.50" endPos="7.50"/>
    <e3Detector id="e3Detector_0" pos="70.45,50.79" freq="100.00" file="e3Detector_0.txt">
        <detEntry lane="gneE14_0" pos="10.29"/>
        <detExit lane="gneE9_0" pos="8.17"/>
    </e3Detector>
</additional>
