<?xml version="1.0" encoding="UTF-8"?>

<!-- generated on 2025-03-05 10:16:28.914744 by scaleTimeLine.py v1_22_0+0650-d108669826e
<configuration>
    <route-files value="input_trips.trips.xml"/>
    <output-file value="scaledObj.rou.xml"/>
    <timeline-list value="3600,400"/>
</configuration>
-->

<routes xmlns:xsi="http://www.w3.org/2001/XMLSchema-instance" xsi:noNamespaceSchemaLocation="http://sumo.dlr.de/xsd/routes_file.xsd">
    <vehicle id="0" depart="0" departSpeed="10" departPos="100">
        <route edges="4/1to3/1 3/1to2/1 2/1to1/1 1/1to0/1"/>
    </vehicle>
    <person id="1" depart="0">
        <walk from="walkStart" to="walkEnd"/>
        <walk edges="e1 e2 e3"/>
    </person>
    <trip id="2" depart="0" from="tripFrom" to="tripTo"/>
    <vehicle id="0#1" depart="0" departSpeed="10" departPos="100">
        <route edges="4/1to3/1 3/1to2/1 2/1to1/1 1/1to0/1"/>
    </vehicle>
    <vehicle id="0#2" depart="0" departSpeed="10" departPos="100">
        <route edges="4/1to3/1 3/1to2/1 2/1to1/1 1/1to0/1"/>
    </vehicle>
    <vehicle id="0#3" depart="0" departSpeed="10" departPos="100">
        <route edges="4/1to3/1 3/1to2/1 2/1to1/1 1/1to0/1"/>
    </vehicle>
    <vehicle id="0#4" depart="0" departSpeed="10" departPos="100">
        <route edges="4/1to3/1 3/1to2/1 2/1to1/1 1/1to0/1"/>
    </vehicle>
    <person id="1#1" depart="0">
        <walk from="walkStart" to="walkEnd"/>
        <walk edges="e1 e2 e3"/>
    </person>
    <person id="1#2" depart="0">
        <walk from="walkStart" to="walkEnd"/>
        <walk edges="e1 e2 e3"/>
    </person>
    <trip id="2#1" depart="0" from="tripFrom" to="tripTo"/>
    <trip id="2#2" depart="0" from="tripFrom" to="tripTo"/>
    <trip id="2#3" depart="0" from="tripFrom" to="tripTo"/>
</routes>
