<?xml version="1.0" encoding="UTF-8"?>


<additional xmlns:xsi="http://www.w3.org/2001/XMLSchema-instance" xsi:noNamespaceSchemaLocation="http://sumo.dlr.de/xsd/additional_file.xsd">
    <busStop id="busStop_gneE0_0_0" lane="gneE0_0" startPos="23.00" endPos="33.00">
        <access lane="gneE1_0" pos="35.00"/>
        <access lane="gneE0_0" pos="15.00" length="3.5" friendlyPos="1"/>
    </busStop>
</additional>
