<polygons>
   <poly id="p1" type="forest" color="0.301,1,0" fill="1" layer="-2" shape="16851.23828,10277.02051 16883.34961,10303.94531 16924.78125,10322.82129 16966.64453,10332.7832 17022.04102,10363.51172 16974.85352,10407.11523 16947.29492,10421.23828 16950.98047,10431.15039 17048.14453,10395.05762 17051.82813,10404.9707 17051.82813,10404.9707 17104.58984,10390.14648 17104.58984,10390.14648 17057.06055,10372.55176 17102.76367,10300.05664 16900.93359,10176.58984 16837.98633,10266.26172 16851.23828,10277.02051"/>
   <poly id="p2" type="city" color="1,0,0" fill="1" layer="-2" shape="16519.49023,11285.63477 16541.00781,11299.5 16541.00781,11299.5 16564.96289,11254.31543 16636.85352,11290.14258 16693.00195,11201.77051 16693.00195,11201.77051 16634.76563,11166.67383 16634.76563,11166.67383 16396.23438,11021.99707 16380.25684,11011.31641 16366.91016,10997.22266 16358.98242,10981.86426 16351.76563,10967.59961 16328.56836,10918.1709 16328.56836,10918.1709 16117.18848,11013.125 16117.18848,11013.125 16148.00488,11066.79102 16175.87305,11088.2666 16175.87305,11088.2666 16269.26953,11040.02148 16316.30664,11088.78223 16329.77246,11082.84082 16369.74805,11122.89648 16433.22266,11174.53711 16426.10352,11188.09082 16475.98242,11216.74121 16511.85547,11158.98242 16545.91406,11182.5127 16518.45898,11224.45605 16544.25,11244.87891 16519.49023,11285.63477"/>
</polygons>
