<?xml version="1.0" encoding="UTF-8"?>

<!-- generated on 03/26/14 12:26:41 by SUMO sumo Version dev-SVN-rUNKNOWN
<?xml version="1.0" encoding="UTF-8"?>

<configuration xmlns:xsi="http://www.w3.org/2001/XMLSchema-instance" xsi:noNamespaceSchemaLocation="http://sumo-sim.org/xsd/sumoConfiguration.xsd">

    <input>
        <net-file value="net.net.xml"/>
        <route-files value="input_routes.rou.xml"/>
    </input>

    <output>
        <amitran-output value="full.xml"/>
    </output>

    <time>
        <begin value="0"/>
        <end value="120"/>
    </time>

    <report>
        <xml-validation value="never"/>
        <no-duration-log value="true"/>
        <no-step-log value="true"/>
    </report>

</configuration>
-->

<trajectories xmlns:xsi="http://www.w3.org/2001/XMLSchema-instance" xsi:noNamespaceSchemaLocation="http://sumo-sim.org/xsd/amitran/trajectories.xsd" timeStepSize="1000">
    <actorConfig id="0" vehicleClass="Passenger" fuel="Gasoline" emissionClass="Euro0" ref="DEFAULT_VEHTYPE"/>
    <vehicle id="0" actorConfig="0" startTime="100000" ref="always_left.0"/>
    <motionState vehicle="0" speed="0" acceleration="0" time="100000"/>
    <vehicle id="1" actorConfig="0" startTime="100000" ref="always_right.0"/>
    <motionState vehicle="1" speed="0" acceleration="0" time="100000"/>
    <vehicle id="2" actorConfig="0" startTime="100000" ref="horizontal.0"/>
    <motionState vehicle="2" speed="0" acceleration="0" time="100000"/>
    <motionState vehicle="0" speed="144" acceleration="1442" time="101000"/>
    <motionState vehicle="1" speed="254" acceleration="2541" time="101000"/>
    <motionState vehicle="2" speed="167" acceleration="1674" time="101000"/>
    <motionState vehicle="0" speed="340" acceleration="1961" time="102000"/>
    <motionState vehicle="1" speed="508" acceleration="2543" time="102000"/>
    <motionState vehicle="2" speed="351" acceleration="1833" time="102000"/>
    <vehicle id="3" actorConfig="0" startTime="102000" ref="vertical.0"/>
    <motionState vehicle="3" speed="0" acceleration="0" time="102000"/>
    <motionState vehicle="0" speed="504" acceleration="1634" time="103000"/>
    <motionState vehicle="1" speed="698" acceleration="1891" time="103000"/>
    <motionState vehicle="2" speed="579" acceleration="2278" time="103000"/>
    <motionState vehicle="3" speed="44" acceleration="444" time="103000"/>
    <motionState vehicle="0" speed="763" acceleration="2592" time="104000"/>
    <motionState vehicle="1" speed="897" acceleration="1994" time="104000"/>
    <motionState vehicle="2" speed="751" acceleration="1725" time="104000"/>
    <motionState vehicle="3" speed="246" acceleration="2012" time="104000"/>
    <motionState vehicle="0" speed="949" acceleration="1864" time="105000"/>
    <motionState vehicle="1" speed="1103" acceleration="2062" time="105000"/>
    <motionState vehicle="2" speed="977" acceleration="2256" time="105000"/>
    <motionState vehicle="3" speed="392" acceleration="1462" time="105000"/>
    <motionState vehicle="0" speed="1069" acceleration="1199" time="106000"/>
    <motionState vehicle="1" speed="1105" acceleration="18" time="106000"/>
    <motionState vehicle="2" speed="1022" acceleration="455" time="106000"/>
    <motionState vehicle="3" speed="585" acceleration="1933" time="106000"/>
    <motionState vehicle="0" speed="1071" acceleration="19" time="107000"/>
    <motionState vehicle="1" speed="989" acceleration="-1160" time="107000"/>
    <motionState vehicle="2" speed="1029" acceleration="65" time="107000"/>
    <motionState vehicle="3" speed="738" acceleration="1528" time="107000"/>
    <motionState vehicle="0" speed="996" acceleration="-754" time="108000"/>
    <motionState vehicle="1" speed="1040" acceleration="513" time="108000"/>
    <motionState vehicle="2" speed="1059" acceleration="308" time="108000"/>
    <motionState vehicle="3" speed="967" acceleration="2292" time="108000"/>
    <motionState vehicle="0" speed="1107" acceleration="1112" time="109000"/>
    <motionState vehicle="1" speed="1012" acceleration="-285" time="109000"/>
    <motionState vehicle="2" speed="1072" acceleration="123" time="109000"/>
    <motionState vehicle="3" speed="1090" acceleration="1231" time="109000"/>
    <motionState vehicle="0" speed="987" acceleration="-1200" time="110000"/>
    <vehicle id="4" actorConfig="0" startTime="110000" ref="always_left.1"/>
    <motionState vehicle="4" speed="0" acceleration="0" time="110000"/>
    <motionState vehicle="1" speed="1022" acceleration="103" time="110000"/>
    <vehicle id="5" actorConfig="0" startTime="110000" ref="always_right.1"/>
    <motionState vehicle="5" speed="0" acceleration="0" time="110000"/>
    <motionState vehicle="2" speed="1107" acceleration="354" time="110000"/>
    <vehicle id="6" actorConfig="0" startTime="110000" ref="horizontal.1"/>
    <motionState vehicle="6" speed="0" acceleration="0" time="110000"/>
    <motionState vehicle="3" speed="1068" acceleration="-223" time="110000"/>
    <motionState vehicle="0" speed="1094" acceleration="1075" time="111000"/>
    <motionState vehicle="4" speed="244" acceleration="2437" time="111000"/>
    <motionState vehicle="1" speed="1077" acceleration="547" time="111000"/>
    <motionState vehicle="5" speed="238" acceleration="2382" time="111000"/>
    <motionState vehicle="2" speed="1058" acceleration="-495" time="111000"/>
    <motionState vehicle="6" speed="135" acceleration="1346" time="111000"/>
    <motionState vehicle="3" speed="1082" acceleration="141" time="111000"/>
    <motionState vehicle="0" speed="1037" acceleration="-574" time="112000"/>
    <motionState vehicle="4" speed="472" acceleration="2286" time="112000"/>
    <motionState vehicle="1" speed="1024" acceleration="-524" time="112000"/>
    <motionState vehicle="5" speed="421" acceleration="1825" time="112000"/>
    <motionState vehicle="2" speed="1005" acceleration="-519" time="112000"/>
    <motionState vehicle="6" speed="383" acceleration="2484" time="112000"/>
    <motionState vehicle="3" speed="1018" acceleration="-639" time="112000"/>
    <motionState vehicle="0" speed="1021" acceleration="-155" time="113000"/>
    <motionState vehicle="4" speed="611" acceleration="1384" time="113000"/>
    <motionState vehicle="1" speed="1047" acceleration="228" time="113000"/>
    <motionState vehicle="5" speed="659" acceleration="2381" time="113000"/>
    <motionState vehicle="2" speed="986" acceleration="-192" time="113000"/>
    <motionState vehicle="6" speed="603" acceleration="2200" time="113000"/>
    <motionState vehicle="3" speed="1036" acceleration="176" time="113000"/>
    <vehicle id="7" actorConfig="0" startTime="113000" ref="vertical.1"/>
    <motionState vehicle="7" speed="0" acceleration="0" time="113000"/>
    <motionState vehicle="0" speed="987" acceleration="-341" time="114000"/>
    <motionState vehicle="4" speed="847" acceleration="2362" time="114000"/>
    <motionState vehicle="1" speed="1107" acceleration="604" time="114000"/>
    <motionState vehicle="5" speed="848" acceleration="1889" time="114000"/>
    <motionState vehicle="2" speed="1028" acceleration="414" time="114000"/>
    <motionState vehicle="6" speed="843" acceleration="2403" time="114000"/>
    <motionState vehicle="3" speed="1075" acceleration="392" time="114000"/>
    <motionState vehicle="7" speed="139" acceleration="1393" time="114000"/>
    <motionState vehicle="0" speed="1102" acceleration="1154" time="115000"/>
    <motionState vehicle="4" speed="1084" acceleration="2367" time="115000"/>
    <motionState vehicle="1" speed="1067" acceleration="-404" time="115000"/>
    <motionState vehicle="5" speed="1034" acceleration="1863" time="115000"/>
    <motionState vehicle="2" speed="982" acceleration="-455" time="115000"/>
    <motionState vehicle="6" speed="1062" acceleration="2192" time="115000"/>
    <motionState vehicle="3" speed="1100" acceleration="251" time="115000"/>
    <motionState vehicle="7" speed="372" acceleration="2331" time="115000"/>
    <motionState vehicle="0" speed="1088" acceleration="-147" time="116000"/>
    <motionState vehicle="4" speed="1105" acceleration="213" time="116000"/>
    <motionState vehicle="1" speed="1065" acceleration="-16" time="116000"/>
    <motionState vehicle="5" speed="1083" acceleration="494" time="116000"/>
    <motionState vehicle="2" speed="1101" acceleration="1186" time="116000"/>
    <motionState vehicle="6" speed="1017" acceleration="-452" time="116000"/>
    <motionState vehicle="3" speed="1073" acceleration="-264" time="116000"/>
    <motionState vehicle="7" speed="544" acceleration="1718" time="116000"/>
    <motionState vehicle="0" speed="1056" acceleration="-314" time="117000"/>
    <motionState vehicle="4" speed="1031" acceleration="-738" time="117000"/>
    <motionState vehicle="1" speed="1004" acceleration="-615" time="117000"/>
    <motionState vehicle="5" speed="1057" acceleration="-265" time="117000"/>
    <motionState vehicle="2" speed="1060" acceleration="-402" time="117000"/>
    <motionState vehicle="6" speed="1044" acceleration="272" time="117000"/>
    <motionState vehicle="3" speed="1035" acceleration="-382" time="117000"/>
    <motionState vehicle="7" speed="757" acceleration="2125" time="117000"/>
    <motionState vehicle="0" speed="984" acceleration="-719" time="118000"/>
    <motionState vehicle="4" speed="1108" acceleration="769" time="118000"/>
    <motionState vehicle="1" speed="997" acceleration="-64" time="118000"/>
    <motionState vehicle="5" speed="991" acceleration="-659" time="118000"/>
    <motionState vehicle="2" speed="1072" acceleration="113" time="118000"/>
    <motionState vehicle="6" speed="1097" acceleration="531" time="118000"/>
    <motionState vehicle="3" speed="1030" acceleration="-51" time="118000"/>
    <motionState vehicle="7" speed="953" acceleration="1960" time="118000"/>
    <motionState vehicle="0" speed="1056" acceleration="717" time="119000"/>
    <motionState vehicle="4" speed="1019" acceleration="-892" time="119000"/>
    <motionState vehicle="1" speed="1036" acceleration="392" time="119000"/>
    <motionState vehicle="5" speed="1072" acceleration="817" time="119000"/>
    <motionState vehicle="2" speed="1052" acceleration="-198" time="119000"/>
    <motionState vehicle="6" speed="997" acceleration="-999" time="119000"/>
    <motionState vehicle="3" speed="985" acceleration="-449" time="119000"/>
    <motionState vehicle="7" speed="1058" acceleration="1049" time="119000"/>
</trajectories>
