<?xml version="1.0" encoding="UTF-8"?>

<!-- generated on Sun May 10 22:33:33 2020 by Eclipse SUMO Version v1_6_0+0169-997ba5ddf1
This data file and the accompanying materials
are made available under the terms of the Eclipse Public License v2.0
which accompanies this distribution, and is available at
http://www.eclipse.org/legal/epl-v20.html
SPDX-License-Identifier: EPL-2.0
<configuration xmlns:xsi="http://www.w3.org/2001/XMLSchema-instance" xsi:noNamespaceSchemaLocation="http://sumo.dlr.de/xsd/sumoConfiguration.xsd">

    <input>
        <net-file value="net2.net.xml"/>
        <route-files value="input_routes.rou.xml"/>
    </input>

    <output>
        <write-license value="true"/>
        <person-summary-output value="summary.xml"/>
    </output>

    <processing>
        <default.speeddev value="0"/>
    </processing>

    <report>
        <xml-validation value="never"/>
        <duration-log.disable value="true"/>
        <no-step-log value="true"/>
    </report>

</configuration>
-->

<personSummary xmlns:xsi="http://www.w3.org/2001/XMLSchema-instance" xsi:noNamespaceSchemaLocation="http://sumo.dlr.de/xsd/person_summary_file.xsd">
    <step time="0.00" loaded="10" inserted="1" walking="0" waitingForRide="0" riding="0" stopping="1" jammed="0" ended="0" arrived="0"/>
    <step time="1.00" loaded="10" inserted="1" walking="0" waitingForRide="0" riding="0" stopping="1" jammed="0" ended="0" arrived="0"/>
    <step time="2.00" loaded="10" inserted="1" walking="0" waitingForRide="0" riding="0" stopping="1" jammed="0" ended="0" arrived="0"/>
    <step time="3.00" loaded="10" inserted="1" walking="0" waitingForRide="0" riding="0" stopping="1" jammed="0" ended="0" arrived="0"/>
    <step time="4.00" loaded="10" inserted="1" walking="0" waitingForRide="0" riding="0" stopping="1" jammed="0" ended="0" arrived="0"/>
    <step time="5.00" loaded="10" inserted="1" walking="0" waitingForRide="0" riding="0" stopping="1" jammed="0" ended="0" arrived="0"/>
    <step time="6.00" loaded="10" inserted="1" walking="0" waitingForRide="0" riding="0" stopping="1" jammed="0" ended="0" arrived="0"/>
    <step time="7.00" loaded="10" inserted="1" walking="0" waitingForRide="0" riding="0" stopping="1" jammed="0" ended="0" arrived="0"/>
    <step time="8.00" loaded="10" inserted="1" walking="0" waitingForRide="0" riding="0" stopping="1" jammed="0" ended="0" arrived="0"/>
    <step time="9.00" loaded="10" inserted="1" walking="0" waitingForRide="0" riding="0" stopping="1" jammed="0" ended="0" arrived="0"/>
    <step time="10.00" loaded="10" inserted="2" walking="0" waitingForRide="0" riding="0" stopping="2" jammed="0" ended="0" arrived="0"/>
    <step time="11.00" loaded="10" inserted="2" walking="0" waitingForRide="0" riding="0" stopping="2" jammed="0" ended="0" arrived="0"/>
    <step time="12.00" loaded="10" inserted="2" walking="0" waitingForRide="0" riding="0" stopping="2" jammed="0" ended="0" arrived="0"/>
    <step time="13.00" loaded="10" inserted="2" walking="0" waitingForRide="0" riding="0" stopping="2" jammed="0" ended="0" arrived="0"/>
    <step time="14.00" loaded="10" inserted="2" walking="0" waitingForRide="0" riding="0" stopping="2" jammed="0" ended="0" arrived="0"/>
    <step time="15.00" loaded="10" inserted="2" walking="0" waitingForRide="0" riding="0" stopping="2" jammed="0" ended="0" arrived="0"/>
    <step time="16.00" loaded="10" inserted="2" walking="0" waitingForRide="0" riding="0" stopping="2" jammed="0" ended="0" arrived="0"/>
    <step time="17.00" loaded="10" inserted="2" walking="0" waitingForRide="0" riding="0" stopping="2" jammed="0" ended="0" arrived="0"/>
    <step time="18.00" loaded="10" inserted="2" walking="0" waitingForRide="0" riding="0" stopping="2" jammed="0" ended="0" arrived="0"/>
    <step time="19.00" loaded="10" inserted="2" walking="0" waitingForRide="0" riding="0" stopping="2" jammed="0" ended="0" arrived="0"/>
    <step time="20.00" loaded="10" inserted="3" walking="0" waitingForRide="0" riding="0" stopping="2" jammed="0" ended="1" arrived="1"/>
    <step time="21.00" loaded="10" inserted="3" walking="0" waitingForRide="0" riding="0" stopping="2" jammed="0" ended="1" arrived="1"/>
    <step time="22.00" loaded="10" inserted="3" walking="0" waitingForRide="0" riding="0" stopping="2" jammed="0" ended="1" arrived="1"/>
    <step time="23.00" loaded="10" inserted="3" walking="0" waitingForRide="0" riding="0" stopping="2" jammed="0" ended="1" arrived="1"/>
    <step time="24.00" loaded="10" inserted="3" walking="0" waitingForRide="0" riding="0" stopping="2" jammed="0" ended="1" arrived="1"/>
    <step time="25.00" loaded="10" inserted="3" walking="0" waitingForRide="0" riding="0" stopping="2" jammed="0" ended="1" arrived="1"/>
    <step time="26.00" loaded="10" inserted="3" walking="0" waitingForRide="0" riding="0" stopping="2" jammed="0" ended="1" arrived="1"/>
    <step time="27.00" loaded="10" inserted="3" walking="0" waitingForRide="0" riding="0" stopping="2" jammed="0" ended="1" arrived="1"/>
    <step time="28.00" loaded="10" inserted="3" walking="0" waitingForRide="0" riding="0" stopping="2" jammed="0" ended="1" arrived="1"/>
    <step time="29.00" loaded="10" inserted="3" walking="0" waitingForRide="0" riding="0" stopping="2" jammed="0" ended="1" arrived="1"/>
    <step time="30.00" loaded="10" inserted="4" walking="0" waitingForRide="0" riding="0" stopping="2" jammed="0" ended="2" arrived="2"/>
    <step time="31.00" loaded="10" inserted="4" walking="0" waitingForRide="0" riding="0" stopping="2" jammed="0" ended="2" arrived="2"/>
    <step time="32.00" loaded="10" inserted="4" walking="0" waitingForRide="0" riding="0" stopping="2" jammed="0" ended="2" arrived="2"/>
    <step time="33.00" loaded="10" inserted="4" walking="0" waitingForRide="0" riding="0" stopping="2" jammed="0" ended="2" arrived="2"/>
    <step time="34.00" loaded="10" inserted="4" walking="0" waitingForRide="0" riding="0" stopping="2" jammed="0" ended="2" arrived="2"/>
    <step time="35.00" loaded="10" inserted="4" walking="0" waitingForRide="0" riding="0" stopping="2" jammed="0" ended="2" arrived="2"/>
    <step time="36.00" loaded="10" inserted="4" walking="0" waitingForRide="0" riding="0" stopping="2" jammed="0" ended="2" arrived="2"/>
    <step time="37.00" loaded="10" inserted="4" walking="0" waitingForRide="0" riding="0" stopping="2" jammed="0" ended="2" arrived="2"/>
    <step time="38.00" loaded="10" inserted="4" walking="0" waitingForRide="0" riding="0" stopping="2" jammed="0" ended="2" arrived="2"/>
    <step time="39.00" loaded="10" inserted="4" walking="0" waitingForRide="0" riding="0" stopping="2" jammed="0" ended="2" arrived="2"/>
    <step time="40.00" loaded="10" inserted="5" walking="0" waitingForRide="0" riding="0" stopping="2" jammed="0" ended="3" arrived="3"/>
    <step time="41.00" loaded="10" inserted="5" walking="0" waitingForRide="0" riding="0" stopping="2" jammed="0" ended="3" arrived="3"/>
    <step time="42.00" loaded="10" inserted="5" walking="0" waitingForRide="0" riding="0" stopping="2" jammed="0" ended="3" arrived="3"/>
    <step time="43.00" loaded="10" inserted="5" walking="0" waitingForRide="0" riding="0" stopping="2" jammed="0" ended="3" arrived="3"/>
    <step time="44.00" loaded="10" inserted="5" walking="0" waitingForRide="0" riding="0" stopping="2" jammed="0" ended="3" arrived="3"/>
    <step time="45.00" loaded="10" inserted="5" walking="0" waitingForRide="0" riding="0" stopping="2" jammed="0" ended="3" arrived="3"/>
    <step time="46.00" loaded="10" inserted="5" walking="0" waitingForRide="0" riding="0" stopping="2" jammed="0" ended="3" arrived="3"/>
    <step time="47.00" loaded="10" inserted="5" walking="0" waitingForRide="0" riding="0" stopping="2" jammed="0" ended="3" arrived="3"/>
    <step time="48.00" loaded="10" inserted="5" walking="0" waitingForRide="0" riding="0" stopping="2" jammed="0" ended="3" arrived="3"/>
    <step time="49.00" loaded="10" inserted="5" walking="0" waitingForRide="0" riding="0" stopping="2" jammed="0" ended="3" arrived="3"/>
    <step time="50.00" loaded="10" inserted="6" walking="0" waitingForRide="0" riding="0" stopping="2" jammed="0" ended="4" arrived="4"/>
    <step time="51.00" loaded="10" inserted="6" walking="0" waitingForRide="0" riding="0" stopping="2" jammed="0" ended="4" arrived="4"/>
    <step time="52.00" loaded="10" inserted="6" walking="0" waitingForRide="0" riding="0" stopping="2" jammed="0" ended="4" arrived="4"/>
    <step time="53.00" loaded="10" inserted="6" walking="0" waitingForRide="0" riding="0" stopping="2" jammed="0" ended="4" arrived="4"/>
    <step time="54.00" loaded="10" inserted="6" walking="0" waitingForRide="0" riding="0" stopping="2" jammed="0" ended="4" arrived="4"/>
    <step time="55.00" loaded="10" inserted="6" walking="0" waitingForRide="0" riding="0" stopping="2" jammed="0" ended="4" arrived="4"/>
    <step time="56.00" loaded="10" inserted="6" walking="0" waitingForRide="0" riding="0" stopping="2" jammed="0" ended="4" arrived="4"/>
    <step time="57.00" loaded="10" inserted="6" walking="0" waitingForRide="0" riding="0" stopping="2" jammed="0" ended="4" arrived="4"/>
    <step time="58.00" loaded="10" inserted="6" walking="0" waitingForRide="0" riding="0" stopping="2" jammed="0" ended="4" arrived="4"/>
    <step time="59.00" loaded="10" inserted="6" walking="0" waitingForRide="0" riding="0" stopping="2" jammed="0" ended="4" arrived="4"/>
    <step time="60.00" loaded="10" inserted="7" walking="0" waitingForRide="0" riding="0" stopping="2" jammed="0" ended="5" arrived="5"/>
    <step time="61.00" loaded="10" inserted="7" walking="0" waitingForRide="0" riding="0" stopping="2" jammed="0" ended="5" arrived="5"/>
    <step time="62.00" loaded="10" inserted="7" walking="0" waitingForRide="0" riding="0" stopping="2" jammed="0" ended="5" arrived="5"/>
    <step time="63.00" loaded="10" inserted="7" walking="0" waitingForRide="0" riding="0" stopping="2" jammed="0" ended="5" arrived="5"/>
    <step time="64.00" loaded="10" inserted="7" walking="0" waitingForRide="0" riding="0" stopping="2" jammed="0" ended="5" arrived="5"/>
    <step time="65.00" loaded="10" inserted="7" walking="0" waitingForRide="0" riding="0" stopping="2" jammed="0" ended="5" arrived="5"/>
    <step time="66.00" loaded="10" inserted="7" walking="0" waitingForRide="0" riding="0" stopping="2" jammed="0" ended="5" arrived="5"/>
    <step time="67.00" loaded="10" inserted="7" walking="0" waitingForRide="0" riding="0" stopping="2" jammed="0" ended="5" arrived="5"/>
    <step time="68.00" loaded="10" inserted="7" walking="0" waitingForRide="0" riding="0" stopping="2" jammed="0" ended="5" arrived="5"/>
    <step time="69.00" loaded="10" inserted="7" walking="0" waitingForRide="0" riding="0" stopping="2" jammed="0" ended="5" arrived="5"/>
    <step time="70.00" loaded="10" inserted="8" walking="0" waitingForRide="0" riding="0" stopping="2" jammed="0" ended="6" arrived="6"/>
    <step time="71.00" loaded="10" inserted="8" walking="0" waitingForRide="0" riding="0" stopping="2" jammed="0" ended="6" arrived="6"/>
    <step time="72.00" loaded="10" inserted="8" walking="0" waitingForRide="0" riding="0" stopping="2" jammed="0" ended="6" arrived="6"/>
    <step time="73.00" loaded="10" inserted="8" walking="0" waitingForRide="0" riding="0" stopping="2" jammed="0" ended="6" arrived="6"/>
    <step time="74.00" loaded="10" inserted="8" walking="0" waitingForRide="0" riding="0" stopping="2" jammed="0" ended="6" arrived="6"/>
    <step time="75.00" loaded="10" inserted="8" walking="0" waitingForRide="0" riding="0" stopping="2" jammed="0" ended="6" arrived="6"/>
    <step time="76.00" loaded="10" inserted="8" walking="0" waitingForRide="0" riding="0" stopping="2" jammed="0" ended="6" arrived="6"/>
    <step time="77.00" loaded="10" inserted="8" walking="0" waitingForRide="0" riding="0" stopping="2" jammed="0" ended="6" arrived="6"/>
    <step time="78.00" loaded="10" inserted="8" walking="0" waitingForRide="0" riding="0" stopping="2" jammed="0" ended="6" arrived="6"/>
    <step time="79.00" loaded="10" inserted="8" walking="0" waitingForRide="0" riding="0" stopping="2" jammed="0" ended="6" arrived="6"/>
    <step time="80.00" loaded="10" inserted="9" walking="0" waitingForRide="0" riding="0" stopping="2" jammed="0" ended="7" arrived="7"/>
    <step time="81.00" loaded="10" inserted="9" walking="0" waitingForRide="0" riding="0" stopping="2" jammed="0" ended="7" arrived="7"/>
    <step time="82.00" loaded="10" inserted="9" walking="0" waitingForRide="0" riding="0" stopping="2" jammed="0" ended="7" arrived="7"/>
    <step time="83.00" loaded="10" inserted="9" walking="0" waitingForRide="0" riding="0" stopping="2" jammed="0" ended="7" arrived="7"/>
    <step time="84.00" loaded="10" inserted="9" walking="0" waitingForRide="0" riding="0" stopping="2" jammed="0" ended="7" arrived="7"/>
    <step time="85.00" loaded="10" inserted="9" walking="0" waitingForRide="0" riding="0" stopping="2" jammed="0" ended="7" arrived="7"/>
    <step time="86.00" loaded="10" inserted="9" walking="0" waitingForRide="0" riding="0" stopping="2" jammed="0" ended="7" arrived="7"/>
    <step time="87.00" loaded="10" inserted="9" walking="0" waitingForRide="0" riding="0" stopping="2" jammed="0" ended="7" arrived="7"/>
    <step time="88.00" loaded="10" inserted="9" walking="0" waitingForRide="0" riding="0" stopping="2" jammed="0" ended="7" arrived="7"/>
    <step time="89.00" loaded="10" inserted="9" walking="0" waitingForRide="0" riding="0" stopping="2" jammed="0" ended="7" arrived="7"/>
    <step time="90.00" loaded="10" inserted="10" walking="0" waitingForRide="0" riding="0" stopping="2" jammed="0" ended="8" arrived="8"/>
    <step time="91.00" loaded="10" inserted="10" walking="0" waitingForRide="0" riding="0" stopping="2" jammed="0" ended="8" arrived="8"/>
    <step time="92.00" loaded="10" inserted="10" walking="0" waitingForRide="0" riding="0" stopping="2" jammed="0" ended="8" arrived="8"/>
    <step time="93.00" loaded="10" inserted="10" walking="0" waitingForRide="0" riding="0" stopping="2" jammed="0" ended="8" arrived="8"/>
    <step time="94.00" loaded="10" inserted="10" walking="0" waitingForRide="0" riding="0" stopping="2" jammed="0" ended="8" arrived="8"/>
    <step time="95.00" loaded="10" inserted="10" walking="0" waitingForRide="0" riding="0" stopping="2" jammed="0" ended="8" arrived="8"/>
    <step time="96.00" loaded="10" inserted="10" walking="0" waitingForRide="0" riding="0" stopping="2" jammed="0" ended="8" arrived="8"/>
    <step time="97.00" loaded="10" inserted="10" walking="0" waitingForRide="0" riding="0" stopping="2" jammed="0" ended="8" arrived="8"/>
    <step time="98.00" loaded="10" inserted="10" walking="0" waitingForRide="0" riding="0" stopping="2" jammed="0" ended="8" arrived="8"/>
    <step time="99.00" loaded="10" inserted="10" walking="0" waitingForRide="0" riding="0" stopping="2" jammed="0" ended="8" arrived="8"/>
    <step time="100.00" loaded="10" inserted="10" walking="0" waitingForRide="0" riding="0" stopping="1" jammed="0" ended="9" arrived="9"/>
    <step time="101.00" loaded="10" inserted="10" walking="0" waitingForRide="0" riding="0" stopping="1" jammed="0" ended="9" arrived="9"/>
    <step time="102.00" loaded="10" inserted="10" walking="0" waitingForRide="0" riding="0" stopping="1" jammed="0" ended="9" arrived="9"/>
    <step time="103.00" loaded="10" inserted="10" walking="0" waitingForRide="0" riding="0" stopping="1" jammed="0" ended="9" arrived="9"/>
    <step time="104.00" loaded="10" inserted="10" walking="0" waitingForRide="0" riding="0" stopping="1" jammed="0" ended="9" arrived="9"/>
    <step time="105.00" loaded="10" inserted="10" walking="0" waitingForRide="0" riding="0" stopping="1" jammed="0" ended="9" arrived="9"/>
    <step time="106.00" loaded="10" inserted="10" walking="0" waitingForRide="0" riding="0" stopping="1" jammed="0" ended="9" arrived="9"/>
    <step time="107.00" loaded="10" inserted="10" walking="0" waitingForRide="0" riding="0" stopping="1" jammed="0" ended="9" arrived="9"/>
    <step time="108.00" loaded="10" inserted="10" walking="0" waitingForRide="0" riding="0" stopping="1" jammed="0" ended="9" arrived="9"/>
    <step time="109.00" loaded="10" inserted="10" walking="0" waitingForRide="0" riding="0" stopping="1" jammed="0" ended="9" arrived="9"/>
    <step time="110.00" loaded="10" inserted="10" walking="0" waitingForRide="0" riding="0" stopping="0" jammed="0" ended="10" arrived="10"/>
</personSummary>
