<?xml version="1.0" encoding="UTF-8"?>

<!-- generated on Fri Nov 29 10:23:58 2019 by Eclipse SUMO duarouter Version v1_3_1+1197-f313815
This data file and the accompanying materials
are made available under the terms of the Eclipse Public License v2.0
which accompanies this distribution, and is available at
http://www.eclipse.org/legal/epl-v20.html
SPDX-License-Identifier: EPL-2.0
<configuration xmlns:xsi="http://www.w3.org/2001/XMLSchema-instance" xsi:noNamespaceSchemaLocation="http://sumo.dlr.de/xsd/duarouterConfiguration.xsd">

    <input>
        <net-file value="input_net.net.xml"/>
        <additional-files value="input_additional.add.xml,input_additional2.add.xml"/>
        <route-files value="input_routes.rou.xml"/>
    </input>

    <output>
        <write-license value="true"/>
        <output-file value="routes.rou.xml"/>
        <alternatives-output value="routes.rou.alt.xml"/>
    </output>

    <report>
        <xml-validation value="never"/>
        <no-step-log value="true"/>
    </report>

</configuration>
-->

<routes xmlns:xsi="http://www.w3.org/2001/XMLSchema-instance" xsi:noNamespaceSchemaLocation="http://sumo.dlr.de/xsd/routes_file.xsd">
    <vType id="avoidWalking" maxSpeed="0.50"/>
    <person id="p0" type="avoidWalking" depart="0.00" departPos="900.00">
        <walk edges="A0B0 accessC" busStop="stopC_W"/> <!-- C -->
        <ride busStop="stopA_W" lines="train2:1" intended="train_train2:1.0" depart="599.00"/> <!-- A -->
        <walk edges="accessA" busStop="stopA_N"/> <!-- A -->
        <ride busStop="stopB_N" lines="train1:0" intended="train_train1:0.1" depart="1001.00"/> <!-- B -->
        <walk edges="accessB A1B1" arrivalPos="100.00"/>
    </person>
</routes>
