<?xml version="1.0" encoding="UTF-8"?>

<!-- generated on Wed May 30 09:51:25 2018 by Eclipse SUMO Version b2daee9
This data file and the accompanying materials
are made available under the terms of the Eclipse Public License v2.0
which accompanies this distribution, and is available at
http://www.eclipse.org/legal/epl-v20.html
SPDX-License-Identifier: EPL-2.0
<configuration xmlns:xsi="http://www.w3.org/2001/XMLSchema-instance" xsi:noNamespaceSchemaLocation="http://sumo.dlr.de/xsd/sumoConfiguration.xsd">

    <input>
        <net-file value="motorway.net.xml"/>
        <route-files value="input_routes.rou.xml"/>
        <additional-files value="input_additional.add.xml"/>
    </input>

    <output>
        <write-license value="true"/>
        <lanechange-output value="lanechanges.xml"/>
    </output>

    <processing>
        <lateral-resolution value="0.8"/>
    </processing>

    <report>
        <verbose value="true"/>
        <xml-validation value="never"/>
        <duration-log.statistics value="true"/>
        <no-step-log value="true"/>
    </report>

</configuration>
-->

<lanechanges>
    <change id="onRamp.0" type="t0" time="13.00" from="merge_0" to="merge_1" dir="1" speed="27.39" pos="40.80" reason="strategic|urgent" leaderGap="69.72" leaderSecureGap="0.00" followerGap="33.81" followerSecureGap="41.23" origLeaderGap="None" origLeaderSecureGap="None" latGap="None"/>
    <change id="main.10" type="t0" time="21.00" from="merge_1" to="merge_2" dir="1" speed="31.99" pos="17.88" reason="cooperative|urgent" leaderGap="84.08" leaderSecureGap="21.55" followerGap="40.43" followerSecureGap="61.38" origLeaderGap="75.72" origLeaderSecureGap="42.70" latGap="None"/>
    <change id="onRamp.1" type="t0" time="23.00" from="merge_0" to="merge_1" dir="1" speed="14.33" pos="80.76" reason="strategic|urgent" leaderGap="72.90" leaderSecureGap="0.00" followerGap="155.55" followerSecureGap="105.58" origLeaderGap="None" origLeaderSecureGap="None" latGap="None"/>
    <change id="onRamp.2" type="t0" time="24.00" from="merge_0" to="merge_1" dir="1" speed="22.72" pos="40.50" reason="strategic|urgent" leaderGap="45.13" leaderSecureGap="62.54" followerGap="84.52" followerSecureGap="74.83" origLeaderGap="None" origLeaderSecureGap="None" latGap="None"/>
    <change id="main.14" type="t0" time="32.00" from="end_0" to="end_1" dir="1" speed="27.26" pos="3.15" reason="cooperative|urgent" leaderGap="12.64" leaderSecureGap="0.00" followerGap="129.40" followerSecureGap="75.45" origLeaderGap="46.51" origLeaderSecureGap="36.19" latGap="None"/>
    <change id="onRamp.3" type="t0" time="37.00" from="merge_0" to="merge_1" dir="1" speed="0.00" pos="96.99" reason="strategic|urgent" leaderGap="None" leaderSecureGap="None" followerGap="17.86" followerSecureGap="6.88" origLeaderGap="None" origLeaderSecureGap="None" latGap="None"/>
    <change id="onRamp.4" type="t0" time="45.00" from="merge_0" to="merge_1" dir="1" speed="0.00" pos="97.00" reason="strategic|urgent" leaderGap="None" leaderSecureGap="None" followerGap="2.60" followerSecureGap="0.00" origLeaderGap="None" origLeaderSecureGap="None" latGap="None"/>
    <change id="main.28" type="t0" time="47.00" from="merge_1" to="merge_2" dir="1" speed="19.99" pos="0.14" reason="cooperative|urgent" leaderGap="20.89" leaderSecureGap="0.00" followerGap="103.01" followerSecureGap="93.26" origLeaderGap="30.66" origLeaderSecureGap="44.03" latGap="None"/>
    <change id="main.26" type="t0" time="49.00" from="merge_1" to="merge_2" dir="1" speed="7.52" pos="55.17" reason="cooperative|urgent" leaderGap="14.28" leaderSecureGap="10.55" followerGap="20.38" followerSecureGap="26.66" origLeaderGap="6.65" origLeaderSecureGap="10.55" latGap="None"/>
    <change id="main.18" type="t0" time="50.00" from="merge_1" to="merge_2" dir="1" speed="2.14" pos="93.76" reason="cooperative|urgent" leaderGap="None" leaderSecureGap="None" followerGap="4.70" followerSecureGap="0.37" origLeaderGap="None" origLeaderSecureGap="None" latGap="None"/>
    <change id="main.20" type="t0" time="50.00" from="merge_1" to="merge_2" dir="1" speed="0.37" pos="84.05" reason="speedGain" leaderGap="4.70" leaderSecureGap="0.37" followerGap="3.27" followerSecureGap="1.33" origLeaderGap="None" origLeaderSecureGap="None" latGap="None"/>
    <change id="main.24" type="t0" time="51.00" from="merge_1" to="merge_2" dir="1" speed="1.30" pos="68.25" reason="speedGain" leaderGap="3.25" leaderSecureGap="1.30" followerGap="4.15" followerSecureGap="0.85" origLeaderGap="23.72" origLeaderSecureGap="1.30" latGap="None"/>
    <change id="onRamp.5" type="t0" time="52.00" from="merge_0" to="merge_1" dir="1" speed="0.01" pos="96.98" reason="strategic|urgent" leaderGap="None" leaderSecureGap="None" followerGap="52.52" followerSecureGap="37.33" origLeaderGap="None" origLeaderSecureGap="None" latGap="None"/>
    <change id="main.22" type="t0" time="52.00" from="merge_1" to="merge_2" dir="1" speed="1.67" pos="78.17" reason="cooperative|urgent" leaderGap="6.20" leaderSecureGap="1.67" followerGap="4.48" followerSecureGap="0.43" origLeaderGap="13.81" origLeaderSecureGap="1.67" latGap="None"/>
    <change id="onRamp.8" type="t0" time="61.00" from="merge_0" to="merge_1" dir="1" speed="2.64" pos="63.42" reason="strategic|urgent" leaderGap="13.74" leaderSecureGap="0.00" followerGap="5.38" followerSecureGap="0.55" origLeaderGap="13.69" origLeaderSecureGap="2.64" latGap="None"/>
    <change id="onRamp.9" type="t0" time="61.00" from="merge_0" to="merge_1" dir="1" speed="0.55" pos="53.04" reason="strategic|urgent" leaderGap="5.38" leaderSecureGap="0.55" followerGap="56.09" followerSecureGap="41.89" origLeaderGap="24.06" origLeaderSecureGap="0.55" latGap="None"/>
    <change id="onRamp.10" type="t0" time="62.00" from="merge_0" to="merge_1" dir="1" speed="0.88" pos="45.38" reason="strategic|urgent" leaderGap="3.66" leaderSecureGap="0.88" followerGap="88.12" followerSecureGap="80.60" origLeaderGap="46.62" origLeaderSecureGap="0.88" latGap="None"/>
    <change id="onRamp.7" type="t0" time="63.00" from="merge_0" to="merge_1" dir="1" speed="2.51" pos="84.74" reason="strategic|urgent" leaderGap="None" leaderSecureGap="None" followerGap="6.54" followerSecureGap="6.66" origLeaderGap="7.26" origLeaderSecureGap="2.51" latGap="None"/>
    <change id="onRamp.6" type="t0" time="65.00" from="merge_0" to="merge_1" dir="1" speed="0.00" pos="97.00" reason="strategic|urgent" leaderGap="None" leaderSecureGap="None" followerGap="3.56" followerSecureGap="2.10" origLeaderGap="None" origLeaderSecureGap="None" latGap="None"/>
    <change id="onRamp.11" type="t0" time="67.00" from="merge_0" to="merge_1" dir="1" speed="4.45" pos="51.47" reason="strategic|urgent" leaderGap="4.61" leaderSecureGap="4.45" followerGap="13.60" followerSecureGap="0.04" origLeaderGap="None" origLeaderSecureGap="None" latGap="None"/>
    <change id="onRamp.12" type="t0" time="73.00" from="merge_0" to="merge_1" dir="1" speed="3.48" pos="56.08" reason="strategic|urgent" leaderGap="8.34" leaderSecureGap="2.89" followerGap="7.89" followerSecureGap="2.29" origLeaderGap="None" origLeaderSecureGap="None" latGap="None"/>
    <change id="main.36" type="t0" time="73.00" from="merge_1" to="merge_2" dir="1" speed="2.29" pos="43.18" reason="speedGain" leaderGap="5.19" leaderSecureGap="0.00" followerGap="4.81" followerSecureGap="0.13" origLeaderGap="7.89" origLeaderSecureGap="2.29" latGap="None"/>
    <change id="main.38" type="t0" time="73.00" from="merge_1" to="merge_2" dir="1" speed="0.13" pos="33.38" reason="speedGain" leaderGap="4.81" leaderSecureGap="0.13" followerGap="10.64" followerSecureGap="13.16" origLeaderGap="17.70" origLeaderSecureGap="0.13" latGap="None"/>
    <change id="onRamp.13" type="t0" time="73.00" from="merge_0" to="merge_1" dir="1" speed="3.90" pos="29.03" reason="strategic|urgent" leaderGap="22.05" leaderSecureGap="3.90" followerGap="6.50" followerSecureGap="3.30" origLeaderGap="None" origLeaderSecureGap="None" latGap="2.10"/>
    <change id="onRamp.11" type="t0" time="76.00" from="merge_1" to="merge_2" dir="1" speed="9.37" pos="92.58" reason="speedGain" leaderGap="5.14" leaderSecureGap="0.00" followerGap="25.72" followerSecureGap="6.28" origLeaderGap="14.86" origLeaderSecureGap="6.62" latGap="None"/>
    <change id="main.54" type="t0" time="79.00" from="beg2_0" to="beg2_1" dir="1" speed="25.82" pos="2887.08" reason="speedGain" leaderGap="52.03" leaderSecureGap="46.59" followerGap="51.96" followerSecureGap="77.37" origLeaderGap="54.62" origLeaderSecureGap="71.23" latGap="None"/>
    <change id="onRamp.14" type="t0" time="82.00" from="merge_0" to="merge_1" dir="1" speed="9.92" pos="74.50" reason="strategic|urgent" leaderGap="12.75" leaderSecureGap="0.00" followerGap="14.99" followerSecureGap="4.81" origLeaderGap="None" origLeaderSecureGap="None" latGap="None"/>
    <change id="onRamp.15" type="t0" time="83.00" from="merge_0" to="merge_1" dir="1" speed="5.26" pos="47.18" reason="strategic|urgent" leaderGap="11.84" leaderSecureGap="0.48" followerGap="8.90" followerSecureGap="2.34" origLeaderGap="None" origLeaderSecureGap="None" latGap="None"/>
    <change id="onRamp.16" type="t0" time="90.00" from="merge_0" to="merge_1" dir="1" speed="10.14" pos="87.54" reason="strategic|urgent" leaderGap="13.01" leaderSecureGap="0.00" followerGap="14.97" followerSecureGap="8.06" origLeaderGap="None" origLeaderSecureGap="None" latGap="None"/>
    <change id="main.68" type="t0" time="96.00" from="beg2_0" to="beg2_1" dir="1" speed="25.09" pos="2882.36" reason="speedGain" leaderGap="40.03" leaderSecureGap="0.00" followerGap="48.91" followerSecureGap="67.74" origLeaderGap="39.79" origLeaderSecureGap="45.85" latGap="None"/>
    <change id="main.66" type="t0" time="105.00" from="merge_1" to="merge_2" dir="1" speed="9.26" pos="45.02" reason="speedGain" leaderGap="12.36" leaderSecureGap="10.43" followerGap="87.76" followerSecureGap="104.75" origLeaderGap="12.36" origLeaderSecureGap="10.43" latGap="None"/>
    <change id="main.62" type="t0" time="106.00" from="merge_1" to="merge_2" dir="1" speed="4.27" pos="84.67" reason="cooperative|urgent" leaderGap="None" leaderSecureGap="None" followerGap="7.91" followerSecureGap="14.67" origLeaderGap="None" origLeaderSecureGap="None" latGap="None"/>
    <change id="main.64" type="t0" time="106.00" from="merge_1" to="merge_2" dir="1" speed="9.39" pos="71.76" reason="speedGain" leaderGap="7.91" leaderSecureGap="14.67" followerGap="88.40" followerSecureGap="83.85" origLeaderGap="12.09" origLeaderSecureGap="14.67" latGap="None"/>
    <change id="onRamp.17" type="t0" time="107.00" from="merge_0" to="merge_1" dir="1" speed="0.00" pos="97.00" reason="strategic|urgent" leaderGap="None" leaderSecureGap="None" followerGap="2.62" followerSecureGap="0.52" origLeaderGap="None" origLeaderSecureGap="None" latGap="None"/>
    <change id="onRamp.18" type="t0" time="107.00" from="merge_0" to="merge_1" dir="1" speed="0.52" pos="89.38" reason="strategic|urgent" leaderGap="2.62" leaderSecureGap="0.52" followerGap="37.22" followerSecureGap="47.90" origLeaderGap="None" origLeaderSecureGap="None" latGap="None"/>
    <change id="onRamp.19" type="t0" time="107.00" from="merge_0" to="merge_1" dir="1" speed="18.58" pos="47.16" reason="strategic|urgent" leaderGap="37.22" leaderSecureGap="47.90" followerGap="21.93" followerSecureGap="17.39" origLeaderGap="None" origLeaderSecureGap="None" latGap="None"/>
    <change id="onRamp.20" type="t0" time="127.00" from="merge_0" to="merge_1" dir="1" speed="0.00" pos="97.00" reason="strategic|urgent" leaderGap="None" leaderSecureGap="None" followerGap="14.05" followerSecureGap="0.01" origLeaderGap="None" origLeaderSecureGap="None" latGap="None"/>
    <change id="onRamp.21" type="t0" time="129.00" from="merge_0" to="merge_1" dir="1" speed="2.27" pos="91.76" reason="strategic|urgent" leaderGap="None" leaderSecureGap="None" followerGap="6.61" followerSecureGap="0.00" origLeaderGap="None" origLeaderSecureGap="None" latGap="None"/>
    <change id="main.94" type="t0" time="137.00" from="beg2_0" to="beg2_1" dir="1" speed="27.65" pos="2930.14" reason="speedGain" leaderGap="61.94" leaderSecureGap="0.00" followerGap="91.97" followerSecureGap="92.10" origLeaderGap="59.29" origLeaderSecureGap="72.03" latGap="None"/>
    <change id="onRamp.22" type="t0" time="145.00" from="merge_0" to="merge_1" dir="1" speed="0.00" pos="97.00" reason="strategic|urgent" leaderGap="None" leaderSecureGap="None" followerGap="2.50" followerSecureGap="0.00" origLeaderGap="None" origLeaderSecureGap="None" latGap="None"/>
    <change id="onRamp.24" type="t0" time="149.00" from="merge_0" to="merge_1" dir="1" speed="2.85" pos="85.56" reason="strategic|urgent" leaderGap="6.35" leaderSecureGap="2.85" followerGap="4.45" followerSecureGap="0.00" origLeaderGap="None" origLeaderSecureGap="None" latGap="None"/>
    <change id="onRamp.23" type="t0" time="150.00" from="merge_0" to="merge_1" dir="1" speed="0.07" pos="96.98" reason="strategic|urgent" leaderGap="None" leaderSecureGap="None" followerGap="4.50" followerSecureGap="1.92" origLeaderGap="None" origLeaderSecureGap="None" latGap="None"/>
    <change id="main.104" type="t0" time="150.00" from="beg2_0" to="beg2_1" dir="1" speed="30.42" pos="2898.08" reason="speedGain" leaderGap="61.64" leaderSecureGap="84.33" followerGap="None" followerSecureGap="None" origLeaderGap="93.67" origLeaderSecureGap="105.16" latGap="None"/>
    <change id="main.102" type="t0" time="151.00" from="beg2_0" to="beg2_1" dir="1" speed="15.37" pos="2980.08" reason="speedGain" leaderGap="31.14" leaderSecureGap="0.00" followerGap="50.69" followerSecureGap="71.27" origLeaderGap="21.04" origLeaderSecureGap="29.23" latGap="None"/>
    <change id="main.84" type="t0" time="153.00" from="merge_1" to="merge_2" dir="1" speed="2.56" pos="80.94" reason="speedGain" leaderGap="3.81" leaderSecureGap="0.00" followerGap="30.19" followerSecureGap="2.01" origLeaderGap="4.59" origLeaderSecureGap="2.56" latGap="None"/>
    <change id="main.88" type="t0" time="153.00" from="merge_1" to="merge_2" dir="1" speed="0.05" pos="61.09" reason="speedGain" leaderGap="2.52" leaderSecureGap="0.05" followerGap="10.34" followerSecureGap="2.01" origLeaderGap="4.46" origLeaderSecureGap="0.00" latGap="None"/>
    <change id="main.90" type="t0" time="153.00" from="merge_1" to="merge_2" dir="1" speed="0.11" pos="53.44" reason="speedGain" leaderGap="2.64" leaderSecureGap="0.11" followerGap="2.69" followerSecureGap="2.01" origLeaderGap="12.10" origLeaderSecureGap="0.00" latGap="None"/>
    <change id="main.92" type="t0" time="153.00" from="merge_1" to="merge_2" dir="1" speed="2.01" pos="45.75" reason="speedGain" leaderGap="2.69" leaderSecureGap="2.01" followerGap="7.38" followerSecureGap="2.90" origLeaderGap="19.79" origLeaderSecureGap="0.51" latGap="None"/>
    <change id="main.96" type="t0" time="153.00" from="merge_1" to="merge_2" dir="1" speed="2.90" pos="33.37" reason="cooperative|urgent" leaderGap="7.38" leaderSecureGap="2.90" followerGap="21.76" followerSecureGap="29.49" origLeaderGap="32.17" origLeaderSecureGap="1.40" latGap="None"/>
    <change id="onRamp.25" type="t0" time="154.00" from="merge_0" to="merge_1" dir="1" speed="2.42" pos="82.67" reason="strategic|urgent" leaderGap="None" leaderSecureGap="None" followerGap="5.27" followerSecureGap="1.86" origLeaderGap="None" origLeaderSecureGap="None" latGap="2.10"/>
    <change id="main.86" type="t0" time="154.00" from="merge_1" to="merge_2" dir="1" speed="1.36" pos="69.96" reason="cooperative|urgent" leaderGap="7.37" leaderSecureGap="1.36" followerGap="3.86" followerSecureGap="0.01" origLeaderGap="7.71" origLeaderSecureGap="1.36" latGap="None"/>
    <change id="onRamp.24" type="t0" time="155.00" from=":D_1_0" to=":D_1_1" dir="1" speed="4.47" pos="0.54" reason="speedGain" leaderGap="14.90" leaderSecureGap="0.69" followerGap="7.55" followerSecureGap="2.65" origLeaderGap="76.95" origLeaderSecureGap="0.00" latGap="None"/>
    <change id="onRamp.26" type="t0" time="155.00" from="merge_0" to="merge_1" dir="1" speed="2.64" pos="75.04" reason="strategic|urgent" leaderGap="5.16" leaderSecureGap="2.64" followerGap="20.30" followerSecureGap="4.93" origLeaderGap="None" origLeaderSecureGap="None" latGap="2.10"/>
    <change id="onRamp.27" type="t0" time="155.00" from="merge_0" to="merge_1" dir="1" speed="4.71" pos="49.74" reason="strategic|urgent" leaderGap="20.30" leaderSecureGap="4.93" followerGap="20.17" followerSecureGap="1.98" origLeaderGap="None" origLeaderSecureGap="None" latGap="None"/>
    <change id="onRamp.28" type="t0" time="157.00" from="merge_0" to="merge_1" dir="1" speed="5.38" pos="45.26" reason="strategic|urgent" leaderGap="13.96" leaderSecureGap="2.71" followerGap="10.44" followerSecureGap="0.32" origLeaderGap="None" origLeaderSecureGap="None" latGap="None"/>
    <change id="onRamp.29" type="t0" time="165.00" from="merge_0" to="merge_1" dir="1" speed="10.04" pos="53.15" reason="strategic|urgent" leaderGap="17.11" leaderSecureGap="8.58" followerGap="9.41" followerSecureGap="0.00" origLeaderGap="None" origLeaderSecureGap="None" latGap="None"/>
    <change id="onRamp.30" type="t0" time="168.00" from="merge_0" to="merge_1" dir="1" speed="9.20" pos="46.71" reason="strategic|urgent" leaderGap="14.06" leaderSecureGap="8.43" followerGap="10.79" followerSecureGap="1.61" origLeaderGap="None" origLeaderSecureGap="None" latGap="None"/>
    <change id="main.123" type="t0" time="181.00" from="beg2_0" to="beg2_1" dir="1" speed="30.37" pos="2926.13" reason="speedGain" leaderGap="31.69" leaderSecureGap="40.78" followerGap="92.36" followerSecureGap="40.44" origLeaderGap="46.47" origLeaderSecureGap="57.32" latGap="None"/>
    <change id="main.127" type="t0" time="192.00" from="merge_1" to="merge_2" dir="1" speed="21.62" pos="28.05" reason="cooperative|urgent" leaderGap="27.43" leaderSecureGap="0.00" followerGap="82.72" followerSecureGap="104.39" origLeaderGap="29.78" origLeaderSecureGap="40.00" latGap="None"/>
    <change id="main.129" type="t0" time="193.00" from="beg2_0" to="beg2_1" dir="1" speed="30.44" pos="2970.77" reason="speedGain" leaderGap="70.08" leaderSecureGap="92.20" followerGap="97.20" followerSecureGap="75.24" origLeaderGap="100.39" origLeaderSecureGap="105.43" latGap="None"/>
    <change id="main.125" type="t0" time="194.00" from="merge_1" to="merge_2" dir="1" speed="10.94" pos="87.10" reason="cooperative|urgent" leaderGap="35.53" leaderSecureGap="0.00" followerGap="21.03" followerSecureGap="25.50" origLeaderGap="18.72" origLeaderSecureGap="16.37" latGap="None"/>
    <change id="onRamp.34" type="t0" time="194.00" from="merge_0" to="merge_1" dir="1" speed="7.26" pos="70.84" reason="strategic|urgent" leaderGap="6.15" leaderSecureGap="10.01" followerGap="197.35" followerSecureGap="152.18" origLeaderGap="13.66" origLeaderSecureGap="10.01" latGap="None"/>
    <change id="onRamp.31" type="t0" time="196.00" from="merge_0" to="merge_1" dir="1" speed="0.00" pos="97.00" reason="strategic|urgent" leaderGap="None" leaderSecureGap="None" followerGap="2.50" followerSecureGap="0.00" origLeaderGap="None" origLeaderSecureGap="None" latGap="None"/>
    <change id="onRamp.32" type="t0" time="196.00" from="merge_0" to="merge_1" dir="1" speed="0.00" pos="89.50" reason="strategic|urgent" leaderGap="2.50" leaderSecureGap="0.00" followerGap="2.50" followerSecureGap="0.00" origLeaderGap="None" origLeaderSecureGap="None" latGap="None"/>
    <change id="onRamp.33" type="t0" time="196.00" from="merge_0" to="merge_1" dir="1" speed="0.00" pos="82.00" reason="strategic|urgent" leaderGap="2.50" leaderSecureGap="0.00" followerGap="2.62" followerSecureGap="0.21" origLeaderGap="None" origLeaderSecureGap="None" latGap="None"/>
    <change id="main.135" type="t0" time="206.00" from="beg2_0" to="beg2_1" dir="1" speed="27.71" pos="2982.96" reason="speedGain" leaderGap="83.99" leaderSecureGap="94.79" followerGap="54.63" followerSecureGap="57.13" origLeaderGap="102.65" origLeaderSecureGap="96.24" latGap="None"/>
    <change id="main.133" type="t0" time="206.00" from="merge_1" to="merge_2" dir="1" speed="9.09" pos="71.95" reason="speedGain" leaderGap="13.65" leaderSecureGap="10.53" followerGap="83.99" followerSecureGap="94.79" origLeaderGap="None" origLeaderSecureGap="None" latGap="None"/>
    <change id="main.131" type="t0" time="207.00" from=":D_1_0" to=":D_1_1" dir="1" speed="7.74" pos="1.35" reason="cooperative|urgent" leaderGap="41.57" leaderSecureGap="0.00" followerGap="13.36" followerSecureGap="8.32" origLeaderGap="30.31" origLeaderSecureGap="0.00" latGap="None"/>
    <change id="onRamp.35" type="t0" time="214.00" from="merge_0" to="merge_1" dir="1" speed="0.00" pos="97.00" reason="strategic|urgent" leaderGap="None" leaderSecureGap="None" followerGap="62.66" followerSecureGap="57.61" origLeaderGap="None" origLeaderSecureGap="None" latGap="None"/>
    <change id="onRamp.36" type="t0" time="236.00" from="merge_0" to="merge_1" dir="1" speed="0.00" pos="97.00" reason="strategic|urgent" leaderGap="None" leaderSecureGap="None" followerGap="3.46" followerSecureGap="0.00" origLeaderGap="None" origLeaderSecureGap="None" latGap="None"/>
    <change id="onRamp.37" type="t0" time="242.00" from="merge_0" to="merge_1" dir="1" speed="3.55" pos="96.85" reason="strategic|urgent" leaderGap="14.91" leaderSecureGap="0.00" followerGap="6.39" followerSecureGap="1.34" origLeaderGap="None" origLeaderSecureGap="None" latGap="None"/>
    <change id="main.169" type="t0" time="247.00" from="beg2_0" to="beg2_1" dir="1" speed="28.20" pos="2895.09" reason="speedGain" leaderGap="59.99" leaderSecureGap="77.85" followerGap="63.35" followerSecureGap="39.02" origLeaderGap="97.00" origLeaderSecureGap="102.79" latGap="None"/>
    <change id="main.167" type="t0" time="248.00" from="beg2_0" to="beg2_1" dir="1" speed="13.93" pos="2974.00" reason="speedGain" leaderGap="31.55" leaderSecureGap="0.00" followerGap="48.99" followerSecureGap="67.28" origLeaderGap="19.48" origLeaderSecureGap="28.71" latGap="None"/>
    <change id="onRamp.40" type="t0" time="250.00" from="merge_0" to="merge_1" dir="1" speed="1.78" pos="81.74" reason="strategic|urgent" leaderGap="9.27" leaderSecureGap="1.78" followerGap="3.46" followerSecureGap="0.00" origLeaderGap="2.73" origLeaderSecureGap="1.78" latGap="None"/>
    <change id="main.147" type="t0" time="250.00" from="merge_1" to="merge_2" dir="1" speed="0.00" pos="73.29" reason="speedGain" leaderGap="3.35" leaderSecureGap="0.00" followerGap="36.71" followerSecureGap="0.01" origLeaderGap="3.46" origLeaderSecureGap="0.00" latGap="None"/>
    <change id="main.157" type="t0" time="250.00" from="merge_1" to="merge_2" dir="1" speed="0.01" pos="31.57" reason="speedGain" leaderGap="2.80" leaderSecureGap="0.01" followerGap="2.55" followerSecureGap="0.08" origLeaderGap="34.92" origLeaderSecureGap="0.01" latGap="None"/>
    <change id="main.159" type="t0" time="250.00" from="merge_1" to="merge_2" dir="1" speed="0.08" pos="24.03" reason="speedGain" leaderGap="2.55" leaderSecureGap="0.08" followerGap="2.66" followerSecureGap="0.17" origLeaderGap="42.47" origLeaderSecureGap="0.08" latGap="None"/>
    <change id="main.161" type="t0" time="250.00" from="merge_1" to="merge_2" dir="1" speed="0.17" pos="16.37" reason="speedGain" leaderGap="2.66" leaderSecureGap="0.17" followerGap="21.90" followerSecureGap="6.46" origLeaderGap="50.13" origLeaderSecureGap="0.17" latGap="None"/>
    <change id="main.149" type="t0" time="251.00" from="merge_1" to="merge_2" dir="1" speed="1.99" pos="65.32" reason="cooperative|urgent" leaderGap="4.64" leaderSecureGap="1.99" followerGap="4.52" followerSecureGap="0.07" origLeaderGap="3.43" origLeaderSecureGap="1.99" latGap="None"/>
    <change id="main.151" type="t0" time="251.00" from="merge_1" to="merge_2" dir="1" speed="0.07" pos="55.81" reason="cooperative|urgent" leaderGap="4.52" leaderSecureGap="0.07" followerGap="2.82" followerSecureGap="0.50" origLeaderGap="12.94" origLeaderSecureGap="0.07" latGap="None"/>
    <change id="main.153" type="t0" time="251.00" from="merge_1" to="merge_2" dir="1" speed="0.50" pos="47.98" reason="speedGain" leaderGap="2.82" leaderSecureGap="0.50" followerGap="3.04" followerSecureGap="0.57" origLeaderGap="20.77" origLeaderSecureGap="0.50" latGap="None"/>
    <change id="main.155" type="t0" time="251.00" from="merge_1" to="merge_2" dir="1" speed="0.57" pos="39.94" reason="speedGain" leaderGap="3.04" leaderSecureGap="0.57" followerGap="3.21" followerSecureGap="0.15" origLeaderGap="28.81" origLeaderSecureGap="0.57" latGap="None"/>
    <change id="main.163" type="t0" time="251.00" from="merge_1" to="merge_2" dir="1" speed="0.28" pos="8.72" reason="speedGain" leaderGap="2.73" leaderSecureGap="0.28" followerGap="7.33" followerSecureGap="9.35" origLeaderGap="60.03" origLeaderSecureGap="0.28" latGap="None"/>
    <change id="onRamp.39" type="t0" time="252.00" from="merge_0" to="merge_1" dir="1" speed="0.00" pos="89.50" reason="strategic|urgent" leaderGap="2.50" leaderSecureGap="0.00" followerGap="2.58" followerSecureGap="0.08" origLeaderGap="None" origLeaderSecureGap="None" latGap="None"/>
    <change id="onRamp.38" type="t0" time="253.00" from="merge_0" to="merge_1" dir="1" speed="0.00" pos="97.00" reason="strategic|urgent" leaderGap="None" leaderSecureGap="None" followerGap="2.50" followerSecureGap="0.00" origLeaderGap="None" origLeaderSecureGap="None" latGap="None"/>
    <change id="onRamp.42" type="t0" time="253.00" from="merge_0" to="merge_1" dir="1" speed="0.53" pos="66.23" reason="strategic|urgent" leaderGap="5.93" leaderSecureGap="0.53" followerGap="15.19" followerSecureGap="22.68" origLeaderGap="None" origLeaderSecureGap="None" latGap="None"/>
    <change id="onRamp.43" type="t0" time="253.00" from="merge_0" to="merge_1" dir="1" speed="12.06" pos="46.04" reason="strategic|urgent" leaderGap="15.19" leaderSecureGap="22.68" followerGap="37.23" followerSecureGap="0.00" origLeaderGap="None" origLeaderSecureGap="None" latGap="None"/>
    <change id="onRamp.38" type="t0" time="257.00" from="end_0" to="end_1" dir="1" speed="7.11" pos="15.01" reason="speedGain" leaderGap="39.65" leaderSecureGap="0.00" followerGap="11.89" followerSecureGap="7.58" origLeaderGap="39.65" origLeaderSecureGap="0.00" latGap="None"/>
    <change id="onRamp.41" type="t0" time="258.00" from="merge_0" to="merge_1" dir="1" speed="2.25" pos="95.76" reason="strategic|urgent" leaderGap="5.14" leaderSecureGap="0.00" followerGap="3.45" followerSecureGap="3.69" origLeaderGap="None" origLeaderSecureGap="None" latGap="None"/>
    <change id="main.170" type="t0" time="261.00" from="beg2_1" to="beg2_0" dir="-1" speed="0.44" pos="2987.76" reason="keepRight" leaderGap="3.14" leaderSecureGap="0.44" followerGap="40.90" followerSecureGap="37.11" origLeaderGap="None" origLeaderSecureGap="None" latGap="None"/>
    <change id="onRamp.45" type="t0" time="262.00" from="merge_0" to="merge_1" dir="1" speed="2.77" pos="60.76" reason="strategic|urgent" leaderGap="7.55" leaderSecureGap="2.77" followerGap="20.79" followerSecureGap="1.61" origLeaderGap="5.45" origLeaderSecureGap="2.77" latGap="None"/>
    <change id="main.169" type="t0" time="262.00" from="beg2_1" to="beg2_0" dir="-1" speed="0.66" pos="2996.56" reason="keepRight" leaderGap="None" leaderSecureGap="None" followerGap="33.77" followerSecureGap="36.70" origLeaderGap="3.30" origLeaderSecureGap="0.66" latGap="None"/>
    <change id="onRamp.46" type="t0" time="263.00" from="merge_0" to="merge_1" dir="1" speed="6.13" pos="49.75" reason="strategic|urgent" leaderGap="7.34" leaderSecureGap="7.76" followerGap="5.82" followerSecureGap="2.33" origLeaderGap="19.39" origLeaderSecureGap="7.76" latGap="None"/>
    <change id="onRamp.44" type="t0" time="269.00" from="merge_0" to="merge_1" dir="1" speed="1.93" pos="89.66" reason="strategic|urgent" leaderGap="None" leaderSecureGap="None" followerGap="7.07" followerSecureGap="1.86" origLeaderGap="None" origLeaderSecureGap="None" latGap="None"/>
    <change id="onRamp.47" type="t0" time="278.00" from="merge_0" to="merge_1" dir="1" speed="2.82" pos="88.82" reason="strategic|urgent" leaderGap="None" leaderSecureGap="None" followerGap="6.54" followerSecureGap="0.00" origLeaderGap="None" origLeaderSecureGap="None" latGap="None"/>
    <change id="onRamp.49" type="t0" time="278.00" from="merge_0" to="merge_1" dir="1" speed="2.41" pos="58.14" reason="strategic|urgent" leaderGap="6.58" leaderSecureGap="2.41" followerGap="6.54" followerSecureGap="0.00" origLeaderGap="15.07" origLeaderSecureGap="2.41" latGap="None"/>
    <change id="onRamp.48" type="t0" time="284.00" from="merge_0" to="merge_1" dir="1" speed="0.05" pos="96.99" reason="strategic|urgent" leaderGap="None" leaderSecureGap="None" followerGap="4.77" followerSecureGap="0.00" origLeaderGap="None" origLeaderSecureGap="None" latGap="None"/>
    <change id="main.195" type="t0" time="284.00" from="beg2_0" to="beg2_1" dir="1" speed="23.06" pos="2873.35" reason="speedGain" leaderGap="29.58" leaderSecureGap="15.04" followerGap="None" followerSecureGap="None" origLeaderGap="35.61" origLeaderSecureGap="42.96" latGap="None"/>
    <change id="main.196" type="t0" time="287.00" from="beg2_0" to="beg2_1" dir="1" speed="24.86" pos="2878.11" reason="speedGain" leaderGap="55.71" leaderSecureGap="32.55" followerGap="26.65" followerSecureGap="26.46" origLeaderGap="64.37" origLeaderSecureGap="78.54" latGap="None"/>
    <change id="onRamp.50" type="t0" time="294.00" from="merge_0" to="merge_1" dir="1" speed="6.01" pos="86.11" reason="strategic|urgent" leaderGap="None" leaderSecureGap="None" followerGap="9.31" followerSecureGap="0.00" origLeaderGap="None" origLeaderSecureGap="None" latGap="None"/>
    <change id="onRamp.51" type="t0" time="297.00" from="merge_0" to="merge_1" dir="1" speed="4.16" pos="77.77" reason="strategic|urgent" leaderGap="5.96" leaderSecureGap="0.57" followerGap="7.00" followerSecureGap="1.66" origLeaderGap="None" origLeaderSecureGap="None" latGap="None"/>