<?xml version="1.0" encoding="UTF-8"?>

<!-- generated on 2022-12-04 10:24:20 by Eclipse SUMO sumo Version v1_15_0+0749-de9f6f8
This data file and the accompanying materials
are made available under the terms of the Eclipse Public License v2.0
which accompanies this distribution, and is available at
http://www.eclipse.org/legal/epl-v20.html
This file may also be made available under the following Secondary
Licenses when the conditions for such availability set forth in the Eclipse
Public License 2.0 are satisfied: GNU General Public License, version 2
or later which is available at
https://www.gnu.org/licenses/old-licenses/gpl-2.0-standalone.html
SPDX-License-Identifier: EPL-2.0 OR GPL-2.0-or-later
<configuration xmlns:xsi="http://www.w3.org/2001/XMLSchema-instance" xsi:noNamespaceSchemaLocation="http://sumo.dlr.de/xsd/sumoConfiguration.xsd">

    <input>
        <net-file value="motorway.net.xml"/>
        <route-files value="input_routes.rou.xml"/>
        <additional-files value="input_additional.add.xml"/>
    </input>

    <output>
        <write-license value="true"/>
        <lanechange-output value="lanechanges.xml"/>
    </output>

    <processing>
        <default.speeddev value="0"/>
    </processing>

    <report>
        <xml-validation value="never"/>
        <duration-log.statistics value="true"/>
        <no-step-log value="true"/>
    </report>

</configuration>
-->

<lanechanges>
    <change id="onRamp.0" type="t0" time="11.00" from="merge_0" to="merge_1" dir="1" speed="29.58" pos="13.55" reason="strategic|urgent" leaderGap="26.98" leaderSecureGap="0.00" leaderSpeed="34.95" followerGap="64.69" followerSecureGap="28.37" followerSpeed="29.41" origLeaderGap="None" origLeaderSecureGap="None" origLeaderSpeed="None"/>
    <change id="main.12" type="t0" time="24.00" from="beg2_0" to="beg2_1" dir="1" speed="32.62" pos="2992.86" reason="cooperative|urgent" leaderGap="131.52" leaderSecureGap="0.00" leaderSpeed="37.28" followerGap="37.03" followerSecureGap="18.81" followerSpeed="30.81" origLeaderGap="155.49" origLeaderSecureGap="24.41" origLeaderSpeed="33.79"/>
    <change id="onRamp.1" type="t0" time="25.00" from="merge_0" to="merge_1" dir="1" speed="26.26" pos="29.98" reason="strategic|urgent" leaderGap="150.91" leaderSecureGap="0.00" leaderSpeed="32.54" followerGap="72.48" followerSecureGap="57.36" followerSpeed="30.81" origLeaderGap="None" origLeaderSecureGap="None" origLeaderSpeed="None"/>
    <change id="main.18" type="t0" time="29.00" from="beg2_0" to="beg2_1" dir="1" speed="32.84" pos="2967.28" reason="cooperative|urgent" leaderGap="30.98" leaderSecureGap="27.60" leaderSpeed="33.59" followerGap="72.08" followerSecureGap="18.06" followerSpeed="30.92" origLeaderGap="52.26" origLeaderSecureGap="39.95" origLeaderSpeed="31.83"/>
    <change id="onRamp.3" type="t0" time="30.00" from="merge_0" to="merge_1" dir="1" speed="20.73" pos="42.20" reason="strategic|urgent" leaderGap="9.17" leaderSecureGap="0.00" leaderSpeed="31.83" followerGap="182.06" followerSecureGap="72.25" followerSpeed="29.24" origLeaderGap="32.92" origLeaderSecureGap="28.30" origLeaderSpeed="11.56"/>
    <change id="onRamp.2" type="t0" time="33.00" from="merge_0" to="merge_1" dir="1" speed="4.62" pos="94.36" reason="strategic|urgent" leaderGap="9.73" leaderSecureGap="0.00" leaderSpeed="22.30" followerGap="148.02" followerSecureGap="108.35" followerSpeed="28.99" origLeaderGap="None" origLeaderSecureGap="None" origLeaderSpeed="None"/>
    <change id="main.30" type="t0" time="46.00" from="merge_1" to="merge_2" dir="1" speed="35.48" pos="19.51" reason="cooperative|urgent" leaderGap="49.58" leaderSecureGap="44.83" leaderSpeed="34.14" followerGap="59.39" followerSecureGap="2.58" followerSpeed="31.34" origLeaderGap="72.21" origLeaderSecureGap="69.85" origLeaderSpeed="30.41"/>
    <change id="onRamp.6" type="t0" time="46.00" from="merge_0" to="merge_1" dir="1" speed="26.23" pos="10.23" reason="strategic|urgent" leaderGap="81.50" leaderSecureGap="0.00" leaderSpeed="30.41" followerGap="76.18" followerSecureGap="60.77" followerSpeed="31.28" origLeaderGap="69.00" origLeaderSecureGap="62.12" origLeaderSpeed="6.04"/>
    <change id="onRamp.7" type="t0" time="48.00" from="merge_0" to="merge_1" dir="1" speed="23.48" pos="27.31" reason="strategic|urgent" leaderGap="35.12" leaderSecureGap="0.00" leaderSpeed="28.60" followerGap="34.53" followerSecureGap="31.36" followerSpeed="27.39" origLeaderGap="56.69" origLeaderSecureGap="52.55" origLeaderSpeed="3.23"/>
    <change id="main.38" type="t0" time="53.00" from="beg2_0" to="beg2_1" dir="1" speed="31.96" pos="2966.30" reason="speedGain" leaderGap="44.48" leaderSecureGap="6.97" leaderSpeed="35.53" followerGap="37.02" followerSecureGap="33.76" followerSpeed="32.18" origLeaderGap="50.82" origLeaderSecureGap="49.13" origLeaderSpeed="29.17"/>
    <change id="onRamp.4" type="t0" time="56.00" from="merge_0" to="merge_1" dir="1" speed="0.00" pos="97.00" reason="strategic|urgent" leaderGap="4.92" leaderSecureGap="0.00" leaderSpeed="28.11" followerGap="202.12" followerSecureGap="122.59" followerSpeed="31.01" origLeaderGap="None" origLeaderSecureGap="None" origLeaderSpeed="None"/>
    <change id="onRamp.5" type="t0" time="56.00" from="merge_0" to="merge_1" dir="1" speed="0.00" pos="89.50" reason="strategic|urgent" leaderGap="2.50" leaderSecureGap="0.00" leaderSpeed="0.00" followerGap="194.62" followerSecureGap="122.59" followerSpeed="31.01" origLeaderGap="None" origLeaderSecureGap="None" origLeaderSpeed="None"/>
    <change id="main.42" type="t0" time="59.00" from="beg2_0" to="beg2_1" dir="1" speed="27.82" pos="2918.71" reason="speedGain" leaderGap="22.12" leaderSecureGap="17.14" leaderSpeed="29.60" followerGap="None" followerSecureGap="None" followerSpeed="None" origLeaderGap="58.87" origLeaderSecureGap="6.97" origLeaderSpeed="31.30"/>
    <change id="main.43" type="t0" time="62.00" from="beg2_0" to="beg2_1" dir="1" speed="35.61" pos="2868.21" reason="speedGain" leaderGap="128.60" leaderSecureGap="84.30" leaderSpeed="28.18" followerGap="34.44" followerSecureGap="4.89" followerSpeed="31.77" origLeaderGap="182.82" origLeaderSecureGap="113.76" origLeaderSpeed="22.52"/>
    <change id="onRamp.8" type="t0" time="64.00" from="merge_0" to="merge_1" dir="1" speed="29.96" pos="1.92" reason="strategic|urgent" leaderGap="88.18" leaderSecureGap="81.39" leaderSpeed="19.70" followerGap="159.91" followerSecureGap="112.83" followerSpeed="40.01" origLeaderGap="None" origLeaderSecureGap="None" origLeaderSpeed="None"/>
    <change id="onRamp.9" type="t0" time="66.00" from="merge_0" to="merge_1" dir="1" speed="30.49" pos="3.39" reason="strategic|urgent" leaderGap="51.72" leaderSecureGap="47.48" leaderSpeed="27.66" followerGap="92.93" followerSecureGap="49.04" followerSpeed="32.94" origLeaderGap="None" origLeaderSecureGap="None" origLeaderSpeed="None"/>
    <change id="main.51" type="t0" time="76.00" from="beg2_0" to="beg2_1" dir="1" speed="33.43" pos="2960.86" reason="cooperative|urgent" leaderGap="118.75" leaderSecureGap="16.88" leaderSpeed="35.79" followerGap="62.71" followerSecureGap="20.97" followerSpeed="31.87" origLeaderGap="151.32" origLeaderSecureGap="28.20" origLeaderSpeed="34.17"/>
    <change id="onRamp.10" type="t0" time="77.00" from="merge_0" to="merge_1" dir="1" speed="0.00" pos="97.00" reason="strategic|urgent" leaderGap="49.94" leaderSecureGap="0.00" leaderSpeed="34.75" followerGap="198.72" followerSecureGap="128.96" followerSpeed="31.87" origLeaderGap="None" origLeaderSecureGap="None" origLeaderSpeed="None"/>
    <change id="onRamp.11" type="t0" time="77.00" from="merge_0" to="merge_1" dir="1" speed="0.39" pos="89.41" reason="strategic|urgent" leaderGap="2.59" leaderSecureGap="0.00" leaderSpeed="0.00" followerGap="191.13" followerSecureGap="128.96" followerSpeed="31.87" origLeaderGap="None" origLeaderSecureGap="None" origLeaderSpeed="None"/>
    <change id="onRamp.12" type="t0" time="81.00" from="merge_0" to="merge_1" dir="1" speed="12.42" pos="79.25" reason="strategic|urgent" leaderGap="16.81" leaderSecureGap="9.95" leaderSpeed="5.90" followerGap="67.68" followerSecureGap="47.18" followerSpeed="23.26" origLeaderGap="None" origLeaderSecureGap="None" origLeaderSpeed="None"/>
    <change id="onRamp.13" type="t0" time="84.00" from="merge_0" to="merge_1" dir="1" speed="16.55" pos="70.99" reason="strategic|urgent" leaderGap="30.50" leaderSecureGap="17.46" leaderSpeed="9.34" followerGap="10.27" followerSecureGap="0.00" followerSpeed="13.14" origLeaderGap="None" origLeaderSecureGap="None" origLeaderSpeed="None"/>
    <change id="main.57" type="t0" time="85.00" from="beg2_0" to="beg2_1" dir="1" speed="29.87" pos="2958.68" reason="speedGain" leaderGap="73.23" leaderSecureGap="1.71" leaderSpeed="34.13" followerGap="119.29" followerSecureGap="89.82" followerSpeed="37.39" origLeaderGap="67.77" origLeaderSecureGap="85.52" origLeaderSpeed="18.52"/>
    <change id="onRamp.14" type="t0" time="90.00" from="merge_0" to="merge_1" dir="1" speed="7.01" pos="93.17" reason="strategic|urgent" leaderGap="9.69" leaderSecureGap="0.00" leaderSpeed="14.55" followerGap="123.71" followerSecureGap="106.14" followerSpeed="30.53" origLeaderGap="None" origLeaderSecureGap="None" origLeaderSpeed="None"/>
    <change id="main.63" type="t0" time="94.00" from="beg2_0" to="beg2_1" dir="1" speed="36.08" pos="2945.85" reason="speedGain" leaderGap="53.46" leaderSecureGap="46.27" leaderSpeed="34.64" followerGap="71.66" followerSecureGap="40.53" followerSpeed="36.57" origLeaderGap="75.58" origLeaderSecureGap="90.66" origLeaderSpeed="27.76"/>
    <change id="main.65" type="t0" time="98.00" from="beg2_0" to="beg2_1" dir="1" speed="34.16" pos="2967.42" reason="cooperative|urgent" leaderGap="39.79" leaderSecureGap="24.57" leaderSpeed="35.54" followerGap="61.48" followerSecureGap="39.89" followerSpeed="34.88" origLeaderGap="155.17" origLeaderSecureGap="89.78" origLeaderSpeed="25.01"/>
    <change id="onRamp.15" type="t0" time="99.00" from="merge_0" to="merge_1" dir="1" speed="25.18" pos="38.20" reason="strategic|urgent" leaderGap="109.91" leaderSecureGap="0.00" leaderSpeed="25.51" followerGap="132.48" followerSecureGap="94.64" followerSpeed="34.88" origLeaderGap="None" origLeaderSecureGap="None" origLeaderSpeed="None"/>
    <change id="onRamp.16" type="t0" time="100.00" from="merge_0" to="merge_1" dir="1" speed="25.79" pos="30.08" reason="strategic|urgent" leaderGap="30.73" leaderSecureGap="16.05" leaderSpeed="27.61" followerGap="90.26" followerSecureGap="85.39" followerSpeed="34.10" origLeaderGap="None" origLeaderSecureGap="None" origLeaderSpeed="None"/>
    <change id="main.73" type="t0" time="105.00" from="beg2_0" to="beg2_1" dir="1" speed="34.54" pos="2869.53" reason="speedGain" leaderGap="52.37" leaderSecureGap="48.25" leaderSpeed="32.58" followerGap="35.04" followerSecureGap="18.10" followerSpeed="32.49" origLeaderGap="81.31" origLeaderSecureGap="53.86" origLeaderSpeed="31.78"/>
    <change id="onRamp.17" type="t0" time="107.00" from="merge_0" to="merge_1" dir="1" speed="0.65" pos="94.57" reason="strategic|urgent" leaderGap="17.43" leaderSecureGap="0.00" leaderSpeed="34.89" followerGap="81.67" followerSecureGap="63.61" followerSpeed="24.10" origLeaderGap="None" origLeaderSecureGap="None" origLeaderSpeed="None"/>
    <change id="onRamp.18" type="t0" time="108.00" from="merge_0" to="merge_1" dir="1" speed="2.88" pos="86.79" reason="strategic|urgent" leaderGap="5.97" leaderSecureGap="0.00" leaderSpeed="3.19" followerGap="54.29" followerSecureGap="33.40" followerSpeed="19.60" origLeaderGap="None" origLeaderSecureGap="None" origLeaderSpeed="None"/>
    <change id="onRamp.19" type="t0" time="108.00" from="merge_0" to="merge_1" dir="1" speed="13.46" pos="64.40" reason="strategic|urgent" leaderGap="17.39" leaderSecureGap="13.42" leaderSpeed="2.88" followerGap="31.91" followerSecureGap="19.99" followerSpeed="19.60" origLeaderGap="None" origLeaderSecureGap="None" origLeaderSpeed="None"/>
    <change id="onRamp.20" type="t0" time="115.00" from="merge_0" to="merge_1" dir="1" speed="10.11" pos="89.72" reason="strategic|urgent" leaderGap="5.72" leaderSecureGap="2.25" leaderSpeed="8.98" followerGap="25.65" followerSecureGap="0.32" followerSpeed="10.11" origLeaderGap="None" origLeaderSecureGap="None" origLeaderSpeed="None"/>
    <change id="onRamp.21" type="t0" time="115.00" from="merge_0" to="merge_1" dir="1" speed="14.98" pos="69.95" reason="strategic|urgent" leaderGap="14.77" leaderSecureGap="11.21" leaderSpeed="10.11" followerGap="5.89" followerSecureGap="0.00" followerSpeed="10.11" origLeaderGap="None" origLeaderSecureGap="None" origLeaderSpeed="None"/>
    <change id="main.81" type="t0" time="116.00" from="beg2_0" to="beg2_1" dir="1" speed="31.93" pos="2935.26" reason="speedGain" leaderGap="34.86" leaderSecureGap="6.00" leaderSpeed="35.64" followerGap="99.74" followerSecureGap="44.59" followerSpeed="33.51" origLeaderGap="46.51" origLeaderSecureGap="74.35" origLeaderSpeed="24.52"/>
    <change id="onRamp.24" type="t0" time="118.00" from="merge_0" to="merge_1" dir="1" speed="16.51" pos="38.59" reason="strategic|urgent" leaderGap="16.70" leaderSecureGap="11.19" leaderSpeed="12.85" followerGap="9.78" followerSecureGap="0.00" followerSpeed="16.27" origLeaderGap="16.14" origLeaderSecureGap="13.92" origLeaderSpeed="11.49"/>
    <change id="main.83" type="t0" time="120.00" from="beg2_0" to="beg2_1" dir="1" speed="31.82" pos="2926.89" reason="cooperative|urgent" leaderGap="34.78" leaderSecureGap="16.79" leaderSpeed="33.97" followerGap="33.64" followerSecureGap="18.31" followerSpeed="29.94" origLeaderGap="115.47" origLeaderSecureGap="122.63" origLeaderSpeed="9.71"/>
    <change id="onRamp.22" type="t0" time="122.00" from="merge_0" to="merge_1" dir="1" speed="0.00" pos="81.66" reason="strategic|urgent" leaderGap="5.29" leaderSecureGap="0.00" leaderSpeed="9.31" followerGap="7.13" followerSecureGap="0.00" followerSpeed="2.71" origLeaderGap="None" origLeaderSecureGap="None" origLeaderSpeed="None"/>
    <change id="onRamp.26" type="t0" time="124.00" from="merge_0" to="merge_1" dir="1" speed="8.48" pos="51.63" reason="strategic|urgent" leaderGap="9.08" leaderSecureGap="4.15" leaderSpeed="3.89" followerGap="112.07" followerSecureGap="90.33" followerSpeed="29.45" origLeaderGap="6.82" origLeaderSecureGap="4.15" origLeaderSpeed="3.43"/>
    <change id="onRamp.23" type="t0" time="126.00" from="merge_0" to="merge_1" dir="1" speed="0.00" pos="75.53" reason="strategic|urgent" leaderGap="3.91" leaderSecureGap="0.00" leaderSpeed="5.43" followerGap="4.82" followerSecureGap="0.00" followerSpeed="0.00" origLeaderGap="None" origLeaderSecureGap="None" origLeaderSpeed="None"/>
    <change id="onRamp.25" type="t0" time="133.00" from="merge_0" to="merge_1" dir="1" speed="2.69" pos="72.33" reason="strategic|urgent" leaderGap="6.28" leaderSecureGap="0.00" leaderSpeed="8.67" followerGap="6.58" followerSecureGap="0.00" followerSpeed="0.98" origLeaderGap="None" origLeaderSecureGap="None" origLeaderSpeed="None"/>
    <change id="onRamp.27" type="t0" time="136.00" from="merge_0" to="merge_1" dir="1" speed="0.07" pos="62.15" reason="strategic|urgent" leaderGap="7.21" leaderSecureGap="0.00" leaderSpeed="6.09" followerGap="7.02" followerSecureGap="0.00" followerSpeed="0.00" origLeaderGap="None" origLeaderSecureGap="None" origLeaderSpeed="None"/>
    <change id="onRamp.28" type="t0" time="141.00" from="merge_0" to="merge_1" dir="1" speed="7.03" pos="71.56" reason="strategic|urgent" leaderGap="11.37" leaderSecureGap="5.29" leaderSpeed="8.76" followerGap="6.01" followerSecureGap="0.00" followerSpeed="1.43" origLeaderGap="None" origLeaderSecureGap="None" origLeaderSpeed="None"/>
    <change id="main.101" type="t0" time="145.00" from="beg2_0" to="beg2_1" dir="1" speed="30.65" pos="2895.64" reason="speedGain" leaderGap="47.15" leaderSecureGap="0.00" leaderSpeed="37.70" followerGap="None" followerSecureGap="None" followerSpeed="None" origLeaderGap="52.55" origLeaderSecureGap="67.73" origLeaderSpeed="23.97"/>
    <change id="onRamp.29" type="t0" time="146.00" from="merge_0" to="merge_1" dir="1" speed="6.92" pos="87.26" reason="strategic|urgent" leaderGap="6.52" leaderSecureGap="0.00" leaderSpeed="11.80" followerGap="10.22" followerSecureGap="5.52" followerSpeed="6.22" origLeaderGap="None" origLeaderSecureGap="None" origLeaderSpeed="None"/>
    <change id="onRamp.30" type="t0" time="150.00" from="merge_0" to="merge_1" dir="1" speed="5.21" pos="78.34" reason="strategic|urgent" leaderGap="6.94" leaderSecureGap="0.00" leaderSpeed="10.35" followerGap="10.14" followerSecureGap="4.08" followerSpeed="4.64" origLeaderGap="None" origLeaderSecureGap="None" origLeaderSpeed="None"/>
    <change id="main.106" type="t0" time="155.00" from="beg2_0" to="beg2_1" dir="1" speed="32.10" pos="2899.87" reason="speedGain" leaderGap="51.49" leaderSecureGap="0.00" leaderSpeed="39.68" followerGap="63.73" followerSecureGap="48.44" followerSpeed="34.14" origLeaderGap="72.86" origLeaderSecureGap="90.80" origLeaderSpeed="21.25"/>
    <change id="main.108" type="t0" time="159.00" from="beg2_0" to="beg2_1" dir="1" speed="32.13" pos="2938.07" reason="speedGain" leaderGap="22.86" leaderSecureGap="17.28" leaderSpeed="34.25" followerGap="70.19" followerSecureGap="36.35" followerSpeed="32.66" origLeaderGap="100.01" origLeaderSecureGap="112.23" origLeaderSpeed="15.26"/>
    <change id="onRamp.31" type="t0" time="162.00" from="merge_0" to="merge_1" dir="1" speed="20.47" pos="57.84" reason="strategic|urgent" leaderGap="23.45" leaderSecureGap="19.58" leaderSpeed="14.76" followerGap="151.96" followerSecureGap="48.32" followerSpeed="25.45" origLeaderGap="None" origLeaderSecureGap="None" origLeaderSpeed="None"/>
    <change id="main.112" type="t0" time="162.00" from="beg2_0" to="beg2_1" dir="1" speed="28.09" pos="2853.77" reason="speedGain" leaderGap="42.88" leaderSecureGap="0.00" leaderSpeed="34.39" followerGap="None" followerSecureGap="None" followerSpeed="None" origLeaderGap="42.11" origLeaderSecureGap="42.35" origLeaderSpeed="25.45"/>
    <change id="onRamp.32" type="t0" time="165.00" from="merge_0" to="merge_1" dir="1" speed="21.63" pos="54.89" reason="strategic|urgent" leaderGap="45.86" leaderSecureGap="23.14" leaderSpeed="16.44" followerGap="71.05" followerSecureGap="46.17" followerSpeed="25.87" origLeaderGap="None" origLeaderSecureGap="None" origLeaderSpeed="None"/>
    <change id="onRamp.33" type="t0" time="165.00" from="merge_0" to="merge_1" dir="1" speed="29.55" pos="0.46" reason="strategic|urgent" leaderGap="49.44" leaderSecureGap="46.31" leaderSpeed="21.63" followerGap="16.61" followerSecureGap="4.87" followerSpeed="25.87" origLeaderGap="None" origLeaderSecureGap="None" origLeaderSpeed="None"/>
    <change id="main.113" type="t0" time="166.00" from="beg2_0" to="beg2_1" dir="1" speed="35.66" pos="2903.15" reason="speedGain" leaderGap="69.71" leaderSecureGap="62.71" leaderSpeed="31.80" followerGap="32.69" followerSecureGap="23.43" followerSpeed="34.13" origLeaderGap="96.39" origLeaderSecureGap="98.32" origLeaderSpeed="25.69"/>
    <change id="onRamp.34" type="t0" time="181.00" from="merge_0" to="merge_1" dir="1" speed="0.01" pos="97.00" reason="strategic|urgent" leaderGap="34.58" leaderSecureGap="0.00" leaderSpeed="37.05" followerGap="107.37" followerSecureGap="78.83" followerSpeed="27.84" origLeaderGap="None" origLeaderSecureGap="None" origLeaderSpeed="None"/>
    <change id="onRamp.35" type="t0" time="181.00" from="merge_0" to="merge_1" dir="1" speed="6.58" pos="87.06" reason="strategic|urgent" leaderGap="4.94" leaderSecureGap="2.25" leaderSpeed="0.01" followerGap="97.43" followerSecureGap="76.75" followerSpeed="27.84" origLeaderGap="None" origLeaderSecureGap="None" origLeaderSpeed="None"/>
    <change id="main.121" type="t0" time="182.00" from="merge_1" to="merge_2" dir="1" speed="26.98" pos="11.61" reason="cooperative|urgent" leaderGap="22.70" leaderSecureGap="0.00" leaderSpeed="40.61" followerGap="132.47" followerSecureGap="116.77" followerSpeed="38.46" origLeaderGap="72.71" origLeaderSecureGap="94.39" origLeaderSpeed="2.26"/>
    <change id="onRamp.36" type="t0" time="184.00" from="merge_0" to="merge_1" dir="1" speed="11.50" pos="76.01" reason="strategic|urgent" leaderGap="13.34" leaderSecureGap="9.50" leaderSpeed="3.39" followerGap="118.95" followerSecureGap="113.52" followerSpeed="31.08" origLeaderGap="None" origLeaderSecureGap="None" origLeaderSpeed="None"/>
    <change id="main.125" type="t0" time="184.00" from="beg2_0" to="beg2_1" dir="1" speed="32.51" pos="2895.43" reason="speedGain" leaderGap="49.93" leaderSecureGap="0.00" leaderSpeed="37.62" followerGap="None" followerSecureGap="None" followerSpeed="None" origLeaderGap="51.63" origLeaderSecureGap="42.14" origLeaderSpeed="31.08"/>
    <change id="onRamp.37" type="t0" time="190.00" from="merge_0" to="merge_1" dir="1" speed="25.24" pos="35.04" reason="strategic|urgent" leaderGap="47.74" leaderSecureGap="35.55" leaderSpeed="16.72" followerGap="44.87" followerSecureGap="27.51" followerSpeed="27.76" origLeaderGap="None" origLeaderSecureGap="None" origLeaderSpeed="None"/>
    <change id="main.128" type="t0" time="192.00" from="beg2_0" to="beg2_1" dir="1" speed="32.28" pos="2961.99" reason="cooperative|urgent" leaderGap="84.97" leaderSecureGap="0.00" leaderSpeed="36.98" followerGap="66.24" followerSecureGap="24.96" followerSpeed="31.35" origLeaderGap="68.04" origLeaderSecureGap="84.00" origLeaderSpeed="23.15"/>
    <change id="onRamp.38" type="t0" time="193.00" from="merge_0" to="merge_1" dir="1" speed="23.96" pos="42.53" reason="strategic|urgent" leaderGap="10.67" leaderSecureGap="3.92" leaderSpeed="23.18" followerGap="177.42" followerSecureGap="75.84" followerSpeed="31.77" origLeaderGap="None" origLeaderSecureGap="None" origLeaderSpeed="None"/>
    <change id="onRamp.39" type="t0" time="195.00" from="merge_0" to="merge_1" dir="1" speed="21.35" pos="55.07" reason="strategic|urgent" leaderGap="23.15" leaderSecureGap="9.64" leaderSpeed="20.65" followerGap="126.93" followerSecureGap="82.81" followerSpeed="31.10" origLeaderGap="None" origLeaderSecureGap="None" origLeaderSpeed="None"/>
    <change id="onRamp.40" type="t0" time="197.00" from="merge_0" to="merge_1" dir="1" speed="21.41" pos="51.52" reason="strategic|urgent" leaderGap="36.59" leaderSecureGap="15.10" leaderSpeed="17.51" followerGap="63.58" followerSecureGap="53.80" followerSpeed="28.08" origLeaderGap="None" origLeaderSecureGap="None" origLeaderSpeed="None"/>
    <change id="onRamp.41" type="t0" time="199.00" from="merge_0" to="merge_1" dir="1" speed="19.86" pos="62.50" reason="strategic|urgent" leaderGap="26.16" leaderSecureGap="13.32" leaderSpeed="21.49" followerGap="30.39" followerSecureGap="23.46" followerSpeed="20.58" origLeaderGap="None" origLeaderSecureGap="None" origLeaderSpeed="None"/>
    <change id="main.138" type="t0" time="206.00" from="beg2_0" to="beg2_1" dir="1" speed="35.16" pos="2976.76" reason="speedGain" leaderGap="44.93" leaderSecureGap="25.26" leaderSpeed="36.51" followerGap="108.61" followerSecureGap="16.17" followerSpeed="32.79" origLeaderGap="67.56" origLeaderSecureGap="87.93" origLeaderSpeed="26.98"/>
    <change id="onRamp.42" type="t0" time="208.00" from="merge_0" to="merge_1" dir="1" speed="27.92" pos="22.84" reason="strategic|urgent" leaderGap="77.90" leaderSecureGap="0.00" leaderSpeed="28.65" followerGap="None" followerSecureGap="None" followerSpeed="None" origLeaderGap="None" origLeaderSecureGap="None" origLeaderSpeed="None"/>
    <change id="onRamp.43" type="t0" time="209.00" from="merge_0" to="merge_1" dir="1" speed="29.03" pos="14.02" reason="strategic|urgent" leaderGap="33.74" leaderSecureGap="23.59" leaderSpeed="29.93" followerGap="None" followerSecureGap="None" followerSpeed="None" origLeaderGap="None" origLeaderSecureGap="None" origLeaderSpeed="None"/>
    <change id="onRamp.44" type="t0" time="211.00" from="merge_0" to="merge_1" dir="1" speed="27.86" pos="21.23" reason="strategic|urgent" leaderGap="47.45" leaderSecureGap="9.44" leaderSpeed="30.57" followerGap="154.02" followerSecureGap="61.94" followerSpeed="32.58" origLeaderGap="None" origLeaderSecureGap="None" origLeaderSpeed="None"/>
    <change id="main.144" type="t0" time="224.00" from="merge_1" to="merge_2" dir="1" speed="31.80" pos="19.33" reason="cooperative|urgent" leaderGap="47.21" leaderSecureGap="15.71" leaderSpeed="34.10" followerGap="54.35" followerSecureGap="35.23" followerSpeed="32.23" origLeaderGap="80.30" origLeaderSecureGap="18.46" origLeaderSpeed="33.71"/>
    <change id="onRamp.45" type="t0" time="225.00" from="merge_0" to="merge_1" dir="1" speed="4.90" pos="93.96" reason="strategic|urgent" leaderGap="39.36" leaderSecureGap="0.00" leaderSpeed="33.68" followerGap="149.50" followerSecureGap="146.31" followerSpeed="34.09" origLeaderGap="None" origLeaderSecureGap="None" origLeaderSpeed="None"/>
    <change id="main.150" type="t0" time="232.00" from="merge_1" to="merge_2" dir="1" speed="29.02" pos="9.91" reason="cooperative|urgent" leaderGap="8.18" leaderSecureGap="0.00" leaderSpeed="38.02" followerGap="84.53" followerSecureGap="43.28" followerSpeed="31.06" origLeaderGap="47.69" origLeaderSecureGap="36.81" origLeaderSpeed="27.72"/>
    <change id="main.152" type="t0" time="234.00" from="merge_1" to="merge_2" dir="1" speed="31.04" pos="21.32" reason="cooperative|urgent" leaderGap="45.30" leaderSecureGap="32.55" leaderSpeed="30.79" followerGap="33.75" followerSecureGap="29.65" followerSpeed="30.85" origLeaderGap="90.64" origLeaderSecureGap="58.24" origLeaderSpeed="26.41"/>
    <change id="main.156" type="t0" time="237.00" from="beg2_0" to="beg2_1" dir="1" speed="35.82" pos="2941.57" reason="cooperative|urgent" leaderGap="62.23" leaderSecureGap="50.20" leaderSpeed="33.77" followerGap="None" followerSecureGap="None" followerSpeed="None" origLeaderGap="99.33" origLeaderSecureGap="82.87" origLeaderSpeed="28.70"/>
    <change id="onRamp.47" type="t0" time="238.00" from="merge_0" to="merge_1" dir="1" speed="21.54" pos="38.94" reason="strategic|urgent" leaderGap="30.65" leaderSecureGap="0.00" leaderSpeed="28.70" followerGap="202.75" followerSecureGap="106.33" followerSpeed="34.19" origLeaderGap="48.69" origLeaderSecureGap="41.18" origLeaderSpeed="3.93"/>
    <change id="onRamp.46" type="t0" time="241.00" from="merge_0" to="merge_1" dir="1" speed="0.01" pos="97.00" reason="strategic|urgent" leaderGap="9.10" leaderSecureGap="0.00" leaderSpeed="24.05" followerGap="157.65" followerSecureGap="144.84" followerSpeed="33.85" origLeaderGap="None" origLeaderSecureGap="None" origLeaderSpeed="None"/>
    <change id="onRamp.48" type="t0" time="243.00" from="merge_0" to="merge_1" dir="1" speed="19.19" pos="60.08" reason="strategic|urgent" leaderGap="39.05" leaderSecureGap="34.05" leaderSpeed="4.62" followerGap="64.45" followerSecureGap="40.21" followerSpeed="26.12" origLeaderGap="None" origLeaderSecureGap="None" origLeaderSpeed="None"/>
    <change id="main.159" type="t0" time="244.00" from="beg2_0" to="beg2_1" dir="1" speed="36.45" pos="2908.78" reason="speedGain" leaderGap="54.87" leaderSecureGap="50.02" leaderSpeed="34.57" followerGap="None" followerSecureGap="None" followerSpeed="None" origLeaderGap="103.03" origLeaderSecureGap="102.64" origLeaderSpeed="26.18"/>
    <change id="onRamp.49" type="t0" time="247.00" from="merge_0" to="merge_1" dir="1" speed="20.27" pos="56.61" reason="strategic|urgent" leaderGap="15.80" leaderSecureGap="8.11" leaderSpeed="18.24" followerGap="176.60" followerSecureGap="150.42" followerSpeed="38.72" origLeaderGap="None" origLeaderSecureGap="None" origLeaderSpeed="None"/>
    <change id="main.160" type="t0" time="249.00" from="beg2_0" to="beg2_1" dir="1" speed="36.73" pos="2951.18" reason="cooperative|urgent" leaderGap="130.68" leaderSecureGap="50.79" leaderSpeed="34.83" followerGap="60.43" followerSecureGap="0.00" followerSpeed="29.76" origLeaderGap="132.19" origLeaderSecureGap="148.60" origLeaderSpeed="15.67"/>
    <change id="onRamp.50" type="t0" time="250.00" from="merge_0" to="merge_1" dir="1" speed="25.17" pos="32.48" reason="strategic|urgent" leaderGap="67.24" leaderSecureGap="36.27" leaderSpeed="16.35" followerGap="127.16" followerSecureGap="26.82" followerSpeed="29.94" origLeaderGap="None" origLeaderSecureGap="None" origLeaderSpeed="None"/>
    <change id="onRamp.51" type="t0" time="252.00" from="merge_0" to="merge_1" dir="1" speed="24.72" pos="39.93" reason="strategic|urgent" leaderGap="37.76" leaderSecureGap="8.20" leaderSpeed="24.94" followerGap="78.59" followerSecureGap="36.72" followerSpeed="26.72" origLeaderGap="None" origLeaderSecureGap="None" origLeaderSpeed="None"/>
    <change id="onRamp.52" type="t0" time="254.00" from="merge_0" to="merge_1" dir="1" speed="25.17" pos="34.25" reason="strategic|urgent" leaderGap="51.47" leaderSecureGap="2.31" leaderSpeed="24.71" followerGap="22.29" followerSecureGap="19.68" followerSpeed="24.26" origLeaderGap="None" origLeaderSecureGap="None" origLeaderSpeed="None"/>
    <change id="main.166" type="t0" time="256.00" from="beg2_0" to="beg2_1" dir="1" speed="37.87" pos="2873.48" reason="speedGain" leaderGap="59.68" leaderSecureGap="56.02" leaderSpeed="35.54" followerGap="42.06" followerSecureGap="0.00" followerSpeed="29.42" origLeaderGap="79.66" origLeaderSecureGap="78.88" origLeaderSpeed="32.28"/>
    <change id="onRamp.53" type="t0" time="257.00" from="merge_0" to="merge_1" dir="1" speed="26.65" pos="29.57" reason="strategic|urgent" leaderGap="46.14" leaderSecureGap="31.17" leaderSpeed="24.82" followerGap="38.65" followerSecureGap="6.40" followerSpeed="27.78" origLeaderGap="None" origLeaderSecureGap="None" origLeaderSpeed="None"/>
    <change id="onRamp.54" type="t0" time="261.00" from="merge_0" to="merge_1" dir="1" speed="15.15" pos="78.50" reason="strategic|urgent" leaderGap="12.27" leaderSecureGap="0.00" leaderSpeed="27.24" followerGap="116.38" followerSecureGap="93.94" followerSpeed="29.55" origLeaderGap="None" origLeaderSecureGap="None" origLeaderSpeed="None"/>