<?xml version="1.0" encoding="UTF-8"?>

<!-- generated on Wed 12 Sep 2018 08:53:00 PM CEST by Eclipse SUMO netedit Version v1_0_0+0152-ca4da05
<configuration xmlns:xsi="http://www.w3.org/2001/XMLSchema-instance" xsi:noNamespaceSchemaLocation="https://sumo.dlr.de/xsd/netconvertConfiguration.xsd">

    <input>
        <sumo-net-file value="net.netconvert"/>
    </input>

    <output>
        <output-file value="net.netconvert"/>
        <plain-output-prefix value="/home/kobo/dlr/sumo/tests/netconvert/function/crossings/specified/sharp_angle_incompatible_vclass/input_plain"/>
    </output>

    <processing>
        <offset.disable-normalization value="true"/>
        <lefthand value="false"/>
    </processing>

    <junctions>
        <no-internal-links value="false"/>
        <no-turnarounds value="true"/>
        <junctions.corner-detail value="5"/>
        <junctions.limit-turn-speed value="5.5"/>
        <rectangular-lane-cut value="false"/>
    </junctions>

    <pedestrian>
        <walkingareas value="false"/>
    </pedestrian>

</configuration>
-->

<connections version="1.0" xmlns:xsi="http://www.w3.org/2001/XMLSchema-instance" xsi:noNamespaceSchemaLocation="https://sumo.dlr.de/xsd/connections_file.xsd">
    <connection from="CE"/>

    <connection from="CN"/>

    <connection from="CS"/>

    <connection from="CW"/>

    <connection from="EC" to="CW" fromLane="1" toLane="1"/>
    <connection from="EC" to="CW" fromLane="2" toLane="2"/>

    <connection from="NC" to="CS" fromLane="1" toLane="1"/>

    <connection from="SC" to="CN" fromLane="1" toLane="1"/>

    <connection from="WC" to="CE" fromLane="1" toLane="1"/>
    <connection from="WC" to="CE" fromLane="2" toLane="2"/>

    <crossing node="C" edges="CN NC" priority="1" width="4.50" linkIndex="6" linkIndex2="16"/>
    <crossing node="C" edges="CE EC" priority="1" width="4.50" linkIndex="7" linkIndex2="17"/>
    <crossing node="C" edges="SC" priority="1" width="4.50" linkIndex="8" linkIndex2="18"/>
    <crossing node="C" edges="CS" priority="1" width="4.50" linkIndex="9" linkIndex2="19"/>
    <crossing node="C" edges="CW WC" priority="1" width="4.50" linkIndex="10" linkIndex2="20"/>
</connections>
