<?xml version="1.0" encoding="UTF-8"?>

<!-- generated on Sun Jun  7 11:12:04 2020 by Eclipse SUMO netconvert Version v1_6_0+0579-3f3e02ebd1
This data file and the accompanying materials
are made available under the terms of the Eclipse Public License v2.0
which accompanies this distribution, and is available at
http://www.eclipse.org/legal/epl-v20.html
SPDX-License-Identifier: EPL-2.0
<configuration xmlns:xsi="http://www.w3.org/2001/XMLSchema-instance" xsi:noNamespaceSchemaLocation="http://sumo.dlr.de/xsd/netconvertConfiguration.xsd">

    <input>
        <node-files value="input_plain.nod.xml"/>
        <edge-files value="input_plain.edg.xml"/>
        <connection-files value="input_plain.con.xml"/>
    </input>

    <output>
        <write-license value="true"/>
        <output-file value="net.net.xml"/>
    </output>

    <junctions>
        <no-turnarounds value="true"/>
    </junctions>

    <report>
        <xml-validation value="never"/>
        <aggregate-warnings value="5"/>
    </report>

</configuration>
-->

<net version="1.6" junctionCornerDetail="5" limitTurnSpeed="5.50" xmlns:xsi="http://www.w3.org/2001/XMLSchema-instance" xsi:noNamespaceSchemaLocation="http://sumo.dlr.de/xsd/net_file.xsd">

    <location netOffset="102.13,21.02" convBoundary="0.00,0.00,202.13,69.22" origBoundary="-10000000000.00,-10000000000.00,10000000000.00,10000000000.00" projParameter="!"/>

    <edge id=":C_0" function="internal">
        <lane id=":C_0_0" index="0" allow="tram" speed="13.89" length="67.42" shape="124.68,35.17 112.77,28.99 94.39,20.01 75.78,11.75 63.22,7.73"/>
    </edge>
    <edge id=":C_1" function="internal">
        <lane id=":C_1_0" index="0" allow="passenger" speed="13.89" length="47.89" shape="127.88,25.82 79.99,25.82"/>
        <lane id=":C_1_1" index="1" allow="passenger" speed="13.89" length="47.89" shape="127.88,22.62 79.99,22.62"/>
    </edge>
    <edge id=":C_3" function="internal">
        <lane id=":C_3_0" index="0" allow="tram" speed="13.89" length="68.69" shape="63.52,4.55 76.28,8.63 95.31,17.02 114.11,26.13 126.21,32.36"/>
    </edge>
    <edge id=":C_4" function="internal">
        <lane id=":C_4_0" index="0" allow="passenger" speed="13.89" length="47.89" shape="79.99,16.22 127.88,16.22"/>
        <lane id=":C_4_1" index="1" allow="passenger" speed="13.89" length="47.89" shape="79.99,19.42 127.88,19.42"/>
    </edge>
    <edge id=":C_c0" function="crossing" crossingEdges="CN NC">
        <lane id=":C_c0_0" index="0" allow="pedestrian" speed="1.00" length="6.40" width="4.50" shape="125.00,29.88 121.93,35.49"/>
    </edge>
    <edge id=":C_c1" function="crossing" crossingEdges="CE EC">
        <lane id=":C_c1_0" index="0" allow="pedestrian" speed="1.00" length="12.80" width="4.50" shape="125.63,14.62 125.63,27.42"/>
    </edge>
    <edge id=":C_c2" function="crossing" crossingEdges="SC">
        <lane id=":C_c2_0" index="0" allow="pedestrian" speed="1.00" length="3.20" width="4.50" shape="65.61,6.36 65.92,3.17"/>
    </edge>
    <edge id=":C_c3" function="crossing" crossingEdges="CS">
        <lane id=":C_c3_0" index="0" allow="pedestrian" speed="1.00" length="3.20" width="4.50" shape="65.30,9.54 65.61,6.36"/>
    </edge>
    <edge id=":C_c4" function="crossing" crossingEdges="CW WC">
        <lane id=":C_c4_0" index="0" allow="pedestrian" speed="1.00" length="12.80" width="4.50" shape="82.24,27.42 82.24,14.62"/>
    </edge>
    <edge id=":C_w0" function="walkingarea">
        <lane id=":C_w0_0" index="0" allow="pedestrian" speed="1.00" length="29.13" width="4.50" shape="79.99,27.42 79.99,28.92 123.19,37.89 123.91,36.57 118.30,34.23 110.84,32.07 102.41,30.20 93.87,28.73 86.11,27.76"/>
    </edge>
    <edge id=":C_w1" function="walkingarea">
        <lane id=":C_w1_0" index="0" allow="pedestrian" speed="1.00" length="2.69" width="4.50" shape="126.98,30.96 127.70,29.64 127.88,28.92 127.88,27.42 127.07,27.62 126.48,28.14 126.15,28.86 126.10,29.65 126.36,30.39"/>
    </edge>
    <edge id=":C_w2" function="walkingarea">
        <lane id=":C_w2_0" index="0" allow="pedestrian" speed="1.00" length="42.81" width="4.50" shape="127.88,14.62 127.88,13.12 63.87,0.96 63.68,2.95 71.20,4.15 82.53,6.41 95.76,9.15 109.00,11.81 120.35,13.82"/>
    </edge>
    <edge id=":C_w3" function="walkingarea">
        <lane id=":C_w3_0" index="0" allow="pedestrian" speed="1.00" length="12.50" width="4.50" shape="63.06,9.33 62.87,11.32 79.99,13.12 79.99,14.62 82.43,14.29 81.50,13.44 78.16,12.29 73.34,11.08 68.00,10.01"/>
    </edge>
    <edge id=":C_w4" function="walkingarea">
        <lane id=":C_w4_0" index="0" allow="pedestrian" speed="1.00" length="0.10" width="4.50" shape="67.85,6.57 63.37,6.14 63.37,6.14 67.85,6.57"/>
    </edge>
    <edge id=":E_w0" function="walkingarea">
        <lane id=":E_w0_0" index="0" allow="pedestrian" speed="1.00" length="14.30" width="1.50" shape="202.13,27.42 202.13,28.92 202.13,13.12 202.13,14.62"/>
    </edge>
    <edge id=":N_w0" function="walkingarea">
        <lane id=":N_w0_0" index="0" allow="pedestrian" speed="1.00" length="7.90" width="1.50" shape="188.78,72.03 188.06,73.34 192.56,65.10 191.84,66.41"/>
    </edge>
    <edge id=":S_w0" function="walkingarea">
        <lane id=":S_w0_0" index="0" allow="pedestrian" speed="1.00" length="8.40" width="2.00" shape="0.31,-3.19 0.50,-5.18 -0.50,5.18 -0.31,3.19"/>
    </edge>
    <edge id=":W_w0" function="walkingarea">
        <lane id=":W_w0_0" index="0" allow="pedestrian" speed="1.00" length="14.30" width="1.50" shape="2.13,14.62 2.13,13.12 2.13,28.92 2.13,27.42"/>
    </edge>

    <edge id="CE" from="C" to="E" priority="2">
        <lane id="CE_0" index="0" allow="pedestrian" speed="13.89" length="74.25" width="1.50" shape="127.88,13.87 202.13,13.87"/>
        <lane id="CE_1" index="1" allow="passenger" speed="13.89" length="74.25" shape="127.88,16.22 202.13,16.22"/>
        <lane id="CE_2" index="2" allow="passenger" speed="13.89" length="74.25" shape="127.88,19.42 202.13,19.42"/>
    </edge>
    <edge id="CN" from="C" to="N" priority="2">
        <lane id="CN_0" index="0" allow="pedestrian" speed="13.89" length="73.92" width="1.50" shape="127.34,30.30 192.20,65.75"/>
        <lane id="CN_1" index="1" allow="tram" speed="13.89" length="73.92" shape="126.21,32.36 191.08,67.82"/>
    </edge>
    <edge id="CS" from="C" to="S" priority="2" shape="63.37,6.14 0.00,0.00">
        <lane id="CS_0" index="0" allow="pedestrian" speed="13.89" length="63.67" width="2.00" shape="62.96,10.32 -0.41,4.18"/>
        <lane id="CS_1" index="1" allow="tram" speed="13.89" length="63.67" shape="63.22,7.73 -0.15,1.59"/>
    </edge>
    <edge id="CW" from="C" to="W" priority="2">
        <lane id="CW_0" index="0" allow="pedestrian" speed="13.89" length="77.86" width="1.50" shape="79.99,28.17 2.13,28.17"/>
        <lane id="CW_1" index="1" allow="passenger" speed="13.89" length="77.86" shape="79.99,25.82 2.13,25.82"/>
        <lane id="CW_2" index="2" allow="passenger" speed="13.89" length="77.86" shape="79.99,22.62 2.13,22.62"/>
    </edge>
    <edge id="EC" from="E" to="C" priority="2">
        <lane id="EC_0" index="0" allow="pedestrian" speed="13.89" length="74.25" width="1.50" shape="202.13,28.17 127.88,28.17"/>
        <lane id="EC_1" index="1" allow="passenger" speed="13.89" length="74.25" shape="202.13,25.82 127.88,25.82"/>
        <lane id="EC_2" index="2" allow="passenger" speed="13.89" length="74.25" shape="202.13,22.62 127.88,22.62"/>
    </edge>
    <edge id="NC" from="N" to="C" priority="2">
        <lane id="NC_0" index="0" allow="pedestrian" speed="13.89" length="73.92" width="1.50" shape="188.42,72.69 123.55,37.23"/>
        <lane id="NC_1" index="1" allow="tram" speed="13.89" length="73.92" shape="189.54,70.62 124.68,35.17"/>
    </edge>
    <edge id="SC" from="S" to="C" priority="2" shape="0.00,0.00 63.37,6.14">
        <lane id="SC_0" index="0" allow="pedestrian" speed="13.89" length="63.67" width="2.00" shape="0.41,-4.18 63.78,1.96"/>
        <lane id="SC_1" index="1" allow="tram" speed="13.89" length="63.67" shape="0.15,-1.59 63.52,4.55"/>
    </edge>
    <edge id="WC" from="W" to="C" priority="2">
        <lane id="WC_0" index="0" allow="pedestrian" speed="13.89" length="77.86" width="1.50" shape="2.13,13.87 79.99,13.87"/>
        <lane id="WC_1" index="1" allow="passenger" speed="13.89" length="77.86" shape="2.13,16.22 79.99,16.22"/>
        <lane id="WC_2" index="2" allow="passenger" speed="13.89" length="77.86" shape="2.13,19.42 79.99,19.42"/>
    </edge>

    <tlLogic id="C" type="static" programID="0" offset="0">
        <phase duration="37" state="rGGrGGGrGGrrrrrrrrrrr"/>
        <phase duration="5"  state="rGGrGGrrrrrrrrrrrrrrr"/>
        <phase duration="3"  state="ryyryyrrrrrrrrrrrrrrr"/>
        <phase duration="37" state="GrrGrrrGrrGrrrrrrrrrr"/>
        <phase duration="5"  state="GrrGrrrrrrrrrrrrrrrrr"/>
        <phase duration="3"  state="yrryrrrrrrrrrrrrrrrrr"/>
    </tlLogic>

    <junction id="C" type="traffic_light" x="102.13" y="21.02" incLanes="NC_0 NC_1 EC_0 EC_1 EC_2 SC_0 SC_1 WC_0 WC_1 WC_2 :C_w1_0 :C_w2_0 :C_w4_0 :C_w3_0 :C_w0_0" intLanes=":C_0_0 :C_1_0 :C_1_1 :C_3_0 :C_4_0 :C_4_1 :C_c0_0 :C_c1_0 :C_c2_0 :C_c3_0 :C_c4_0" shape="123.19,37.89 127.70,29.64 127.88,28.92 127.88,13.12 116.19,12.39 105.71,10.50 95.83,7.95 85.97,5.19 75.52,2.70 63.87,0.96 62.87,11.32 68.52,11.87 73.05,12.32 76.46,12.67 78.75,12.92 79.93,13.07 79.99,28.92 89.51,28.85 96.69,28.89 102.60,29.44 108.29,30.86 114.80,33.55" radius="4.00">
        <request index="0"  response="01001110110" foes="01001110110" cont="0"/>
        <request index="1"  response="10010000000" foes="10010001001" cont="0"/>
        <request index="2"  response="10010000000" foes="10010001001" cont="0"/>
        <request index="3"  response="00101110110" foes="00101110110" cont="0"/>
        <request index="4"  response="10010000000" foes="10010001001" cont="0"/>
        <request index="5"  response="10010000000" foes="10010001001" cont="0"/>
        <request index="6"  response="00000000000" foes="00000001001" cont="0"/>
        <request index="7"  response="00000000000" foes="00000110110" cont="0"/>
        <request index="8"  response="00000000000" foes="00000001000" cont="0"/>
        <request index="9"  response="00000000000" foes="00000000001" cont="0"/>
        <request index="10" response="00000000000" foes="00000110110" cont="0"/>
    </junction>
    <junction id="E" type="dead_end" x="202.13" y="21.02" incLanes="CE_0 CE_1 CE_2" intLanes="" shape="202.13,21.02 202.13,13.12 202.13,21.02"/>
    <junction id="N" type="dead_end" x="190.31" y="69.22" incLanes="CN_0 CN_1" intLanes="" shape="190.31,69.22 192.56,65.10 190.31,69.22"/>
    <junction id="S" type="dead_end" x="0.00" y="0.00" incLanes="CS_0 CS_1" intLanes="" shape="-0.00,-0.00 -0.50,5.18 -0.00,-0.00"/>
    <junction id="W" type="dead_end" x="2.13" y="21.02" incLanes="CW_0 CW_1 CW_2" intLanes="" shape="2.13,21.02 2.13,28.92 2.13,21.02"/>

    <connection from="EC" to="CW" fromLane="1" toLane="1" via=":C_1_0" tl="C" linkIndex="1" dir="s" state="o"/>
    <connection from="EC" to="CW" fromLane="2" toLane="2" via=":C_1_1" tl="C" linkIndex="2" dir="s" state="o"/>
    <connection from="NC" to="CS" fromLane="1" toLane="1" via=":C_0_0" tl="C" linkIndex="0" dir="s" state="o"/>
    <connection from="SC" to="CN" fromLane="1" toLane="1" via=":C_3_0" tl="C" linkIndex="3" dir="s" state="o"/>
    <connection from="WC" to="CE" fromLane="1" toLane="1" via=":C_4_0" tl="C" linkIndex="4" dir="s" state="o"/>
    <connection from="WC" to="CE" fromLane="2" toLane="2" via=":C_4_1" tl="C" linkIndex="5" dir="s" state="o"/>

    <connection from=":C_0" to="CS" fromLane="0" toLane="1" dir="s" state="M"/>
    <connection from=":C_1" to="CW" fromLane="0" toLane="1" dir="s" state="M"/>
    <connection from=":C_1" to="CW" fromLane="1" toLane="2" dir="s" state="M"/>
    <connection from=":C_3" to="CN" fromLane="0" toLane="1" dir="s" state="M"/>
    <connection from=":C_4" to="CE" fromLane="0" toLane="1" dir="s" state="M"/>
    <connection from=":C_4" to="CE" fromLane="1" toLane="2" dir="s" state="M"/>

    <connection from=":C_c0" to=":C_w0" fromLane="0" toLane="0" tl="C" linkIndex="16" dir="s" state="M"/>
    <connection from=":C_c1" to=":C_w1" fromLane="0" toLane="0" tl="C" linkIndex="17" dir="s" state="M"/>
    <connection from=":C_c2" to=":C_w2" fromLane="0" toLane="0" tl="C" linkIndex="18" dir="s" state="M"/>
    <connection from=":C_c3" to=":C_w4" fromLane="0" toLane="0" tl="C" linkIndex="19" dir="s" state="M"/>
    <connection from=":C_c4" to=":C_w3" fromLane="0" toLane="0" tl="C" linkIndex="20" dir="s" state="M"/>
    <connection from=":C_w0" to=":C_c4" fromLane="0" toLane="0" tl="C" linkIndex="10" dir="s" state="M"/>
    <connection from=":C_w0" to="CW" fromLane="0" toLane="0" dir="s" state="M"/>
    <connection from="NC" to=":C_w0" fromLane="0" toLane="0" dir="s" state="M"/>
    <connection from=":C_w1" to=":C_c0" fromLane="0" toLane="0" tl="C" linkIndex="6" dir="s" state="M"/>
    <connection from=":C_w1" to="CN" fromLane="0" toLane="0" dir="s" state="M"/>
    <connection from="EC" to=":C_w1" fromLane="0" toLane="0" dir="s" state="M"/>
    <connection from=":C_w2" to=":C_c1" fromLane="0" toLane="0" tl="C" linkIndex="7" dir="s" state="M"/>
    <connection from=":C_w2" to="CE" fromLane="0" toLane="0" dir="s" state="M"/>
    <connection from="SC" to=":C_w2" fromLane="0" toLane="0" dir="s" state="M"/>
    <connection from=":C_w3" to=":C_c3" fromLane="0" toLane="0" tl="C" linkIndex="9" dir="s" state="M"/>
    <connection from=":C_w3" to="CS" fromLane="0" toLane="0" dir="s" state="M"/>
    <connection from="WC" to=":C_w3" fromLane="0" toLane="0" dir="s" state="M"/>
    <connection from=":C_w4" to=":C_c2" fromLane="0" toLane="0" tl="C" linkIndex="8" dir="s" state="M"/>
    <connection from=":E_w0" to="EC" fromLane="0" toLane="0" dir="s" state="M"/>
    <connection from="CE" to=":E_w0" fromLane="0" toLane="0" dir="s" state="M"/>
    <connection from=":N_w0" to="NC" fromLane="0" toLane="0" dir="s" state="M"/>
    <connection from="CN" to=":N_w0" fromLane="0" toLane="0" dir="s" state="M"/>
    <connection from=":S_w0" to="SC" fromLane="0" toLane="0" dir="s" state="M"/>
    <connection from="CS" to=":S_w0" fromLane="0" toLane="0" dir="s" state="M"/>
    <connection from=":W_w0" to="WC" fromLane="0" toLane="0" dir="s" state="M"/>
    <connection from="CW" to=":W_w0" fromLane="0" toLane="0" dir="s" state="M"/>
</net>
