<?xml version="1.0" encoding="UTF-8"?>

<!-- generated on 2026-01-23T17:44:52.589883+01:00 by Eclipse SUMO sumo v1_25_0+1167-e4289d0ddf3
<sumoConfiguration xmlns:xsi="http://www.w3.org/2001/XMLSchema-instance" xsi:noNamespaceSchemaLocation="http://sumo.dlr.de/xsd/sumoConfiguration.xsd">

    <input>
        <net-file value="input_net2.net.xml"/>
        <route-files value="input_routes.rou.xml"/>
    </input>

    <report>
        <no-step-log value="true"/>
    </report>

    <traci_server>
        <remote-port value="44173"/>
    </traci_server>

</sumoConfiguration>
-->

<snapshot type="micro" version="v1_25_0+1167-e4289d0ddf3" time="10.00" xmlns:xsi="http://www.w3.org/2001/XMLSchema-instance" xsi:noNamespaceSchemaLocation="http://sumo.dlr.de/xsd/state_file.xsd">
    <route id="!trip_0" state="0" edges="WC CE"/>
    <delay number="1" begin="1" end="0" depart="0.00" time="0.00"/>
    <vType id="DEFAULT_VEHTYPE"/>
    <vType id="accident"/>
    <vehicle id="trip_0" type="accident" depart="0.00" route="!trip_0" distance="0 0" speedFactor="1.0600" reroute="1" state="262144 0 0 5.10 0 3.89 9000 0 0" pos="80.34 75.34 10.17" speed="10.17 13.57" angle="90.00" posLat="0.00" waitingTime="100000 0">
        <device id="routing_trip_0" state="0 0"/>
    </vehicle>
    <lane id="WC_0">
        <vehicles value="trip_0"/>
    </lane>
    <tlLogic id="C" programID="0" phase="0" duration="10000" active="1"/>
    <routingEngine last="10000" index="10">
        <edge id="WC" speed="13.71" pastSpeed="6.95 7.80 9.06 10.08 10.73 11.52 12.19 12.98 13.73 12.03 13.89 13.89 13.89 13.89 13.89 13.89 13.89 13.89 13.89 13.89 13.89 13.89 13.89 13.89 13.89 13.89 13.89 13.89 13.89 13.89 13.89 13.89 13.89 13.89 13.89 13.89 13.89 13.89 13.89 13.89 13.89 13.89 13.89 13.89 13.89 13.89 13.89 13.89 13.89 13.89 13.89 13.89 13.89 13.89 13.89 13.89 13.89 13.89 13.89 13.89 13.89 13.89 13.89 13.89 13.89 13.89 13.89 13.89 13.89 13.89 13.89 13.89 13.89 13.89 13.89 13.89 13.89 13.89 13.89 13.89 13.89 13.89 13.89 13.89 13.89 13.89 13.89 13.89 13.89 13.89 13.89 13.89 13.89 13.89 13.89 13.89 13.89 13.89 13.89 13.89 13.89 13.89 13.89 13.89 13.89 13.89 13.89 13.89 13.89 13.89 13.89 13.89 13.89 13.89 13.89 13.89 13.89 13.89 13.89 13.89 13.89 13.89 13.89 13.89 13.89 13.89 13.89 13.89 13.89 13.89 13.89 13.89 13.89 13.89 13.89 13.89 13.89 13.89 13.89 13.89 13.89 13.89 13.89 13.89 13.89 13.89 13.89 13.89 13.89 13.89 13.89 13.89 13.89 13.89 13.89 13.89 13.89 13.89 13.89 13.89 13.89 13.89 13.89 13.89 13.89 13.89 13.89 13.89 13.89 13.89 13.89 13.89 13.89 13.89 13.89 13.89 13.89 13.89 13.89 13.89"/>
    </routingEngine>
</snapshot>
