<?xml version="1.0" encoding="UTF-8"?>

<!-- generated on 10/31/12 15:18:35 by SUMO netconvert Version dev-SVN-rUNKNOWN
<?xml version="1.0" encoding="UTF-8"?>

<configuration xmlns:xsi="http://www.w3.org/2001/XMLSchema-instance" xsi:noNamespaceSchemaLocation="http://sumo.sf.net/xsd/netconvertConfiguration.xsd">

    <input>
        <opendrive-files value="opendrive.xodr"/>
    </input>

    <output>
        <output-file value="net.net.xml"/>
    </output>

    <processing>
        <no-internal-links value="true"/>
    </processing>

    <report>
        <verbose value="true"/>
    </report>

</configuration>
-->

<net version="0.13" xmlns:xsi="http://www.w3.org/2001/XMLSchema-instance" xsi:noNamespaceSchemaLocation="http://sumo.sf.net/xsd/net_file.xsd">

    <location netOffset="-178.94,-237.10" convBoundary="0.00,0.00,572.07,568.08" origBoundary="178.94,237.10,751.01,805.18" projParameter="!"/>

    <edge id="-71" from="91.71" to="2" priority="1" shape="157.03,270.59 257.02,271.08 258.15,271.09">
        <lane id="-71_0" index="0" speed="13.90" length="108.40" shape="157.03,268.94 257.03,269.43 265.43,269.47"/>
    </edge>
    <edge id="-82" from="2" to="90.82" priority="1" shape="298.46,282.02 369.03,352.87">
        <lane id="-82_0" index="0" speed="13.90" length="118.50" shape="286.58,267.75 370.20,351.71"/>
    </edge>
    <edge id="-88" from="2" to="90.88" priority="1" shape="276.84,258.18 277.43,138.18">
        <lane id="-88_0" index="0" speed="13.90" length="124.33" shape="275.16,264.01 275.78,139.67"/>
    </edge>
    <edge id="-89" from="2" to="91.89" priority="1" shape="276.68,289.18 276.09,409.18">
        <lane id="-89_0" index="0" speed="13.90" length="131.75" shape="278.40,275.94 277.75,407.69"/>
    </edge>
    <edge id="-90" from="90.82" to="90.88" priority="1" shape="369.03,352.87 372.12,355.98 372.83,356.69 373.54,357.39 374.24,358.10 374.95,358.81 375.66,359.52 376.36,360.22 377.07,360.93 377.78,361.63 378.49,362.34 379.21,363.04 379.92,363.74 380.64,364.43 381.36,365.13 382.08,365.83 382.80,366.52 383.52,367.21 384.25,367.89 384.98,368.58 385.71,369.26 386.44,369.94 387.18,370.61 387.92,371.28 388.67,371.95 389.42,372.62 390.17,373.28 390.92,373.93 391.68,374.58 392.44,375.23 393.21,375.87 393.98,376.51 394.75,377.14 395.53,377.77 396.32,378.39 397.10,379.01 397.90,379.62 398.69,380.22 399.50,380.82 400.30,381.41 401.11,381.99 401.93,382.57 403.45,383.61 411.98,388.82 420.96,393.21 430.31,396.76 439.94,399.43 449.78,401.20 459.74,402.05 469.73,401.99 479.68,400.99 489.49,399.09 499.09,396.28 508.38,392.60 517.30,388.08 525.76,382.76 533.69,376.68 541.03,369.89 547.71,362.45 553.68,354.43 558.87,345.89 563.26,336.91 566.80,327.56 569.46,317.92 571.22,308.08 572.07,298.12 571.99,288.13 570.99,278.18 569.07,268.37 568.47,266.03 568.21,265.07 567.94,264.10 567.66,263.14 567.37,262.19 567.08,261.23 566.77,260.28 566.46,259.33 566.14,258.38 565.82,257.43 565.48,256.49 565.14,255.55 564.80,254.61 564.45,253.68 564.09,252.74 563.73,251.81 563.36,250.88 562.98,249.95 562.60,249.03 562.22,248.11 561.83,247.18 561.44,246.27 561.04,245.35 560.64,244.43 560.23,243.52 559.82,242.61 559.41,241.69 558.99,240.78 558.57,239.88 558.15,238.97 557.73,238.06 557.30,237.16 556.87,236.26 556.44,235.35 556.01,234.45 555.58,233.55 555.14,232.65 554.71,231.75 554.27,230.85 553.83,229.95 553.39,229.05 552.58,227.40 480.26,79.47 479.82,78.57 479.38,77.67 478.94,76.78 478.50,75.88 478.06,74.98 477.62,74.08 477.18,73.19 476.73,72.29 476.29,71.40 475.84,70.50 475.39,69.61 474.94,68.71 474.49,67.82 474.04,66.93 473.58,66.04 473.12,65.15 472.66,64.27 472.20,63.38 471.73,62.50 471.26,61.61 470.78,60.73 470.31,59.85 469.83,58.98 469.34,58.10 468.85,57.23 468.36,56.36 467.87,55.49 467.36,54.63 466.86,53.76 466.35,52.90 465.83,52.05 465.31,51.19 464.79,50.34 464.26,49.49 463.73,48.65 463.18,47.81 462.64,46.97 462.09,46.13 461.53,45.30 460.96,44.48 460.40,43.66 459.82,42.84 459.24,42.03 458.65,41.22 458.05,40.41 457.45,39.62 456.84,38.82 456.23,38.03 455.60,37.25 454.97,36.47 454.34,35.70 453.69,34.94 453.04,34.18 452.01,33.00 444.98,25.90 437.27,19.54 428.95,13.98 420.13,9.30 410.87,5.52 401.28,2.69 391.46,0.85 381.50,0.00 371.51,0.16 361.58,1.32 351.82,3.48 342.32,6.61 333.19,10.67 324.52,15.64 316.39,21.45 308.88,28.06 302.08,35.38 296.05,43.35 290.85,51.89 286.54,60.91 283.16,70.31 282.74,71.73 282.47,72.69 282.20,73.65 281.95,74.62 281.71,75.59 281.47,76.56 281.25,77.54 281.03,78.51 280.82,79.49 280.62,80.47 280.43,81.45 280.25,82.44 280.07,83.42 279.91,84.41 279.75,85.39 279.59,86.38 279.45,87.37 279.31,88.36 279.18,89.35 279.05,90.34 278.94,91.34 278.82,92.33 278.72,93.33 278.62,94.32 278.52,95.32 278.44,96.31 278.35,97.31 278.27,98.31 278.20,99.30 278.13,100.30 278.07,101.30 278.01,102.30 277.96,103.30 277.91,104.29 277.86,105.29 277.82,106.29 277.78,107.29 277.75,108.29 277.72,109.29 277.69,110.29 277.66,111.29 277.64,112.29 277.62,113.29 277.60,114.29 277.58,115.29 277.57,116.29 277.56,117.29 277.54,118.29 277.53,119.29 277.53,120.29 277.52,121.29 277.51,122.29 277.51,123.29 277.50,124.29 277.49,125.86 277.43,138.18">
        <lane id="-90_0" index="0" speed="13.90" length="837.33" shape="370.20,351.71 373.29,354.81 374.00,355.52 374.70,356.23 375.41,356.94 376.12,357.64 376.82,358.35 377.53,359.06 378.24,359.76 378.95,360.46 379.65,361.16 380.37,361.86 381.08,362.56 381.79,363.25 382.50,363.95 383.22,364.64 383.94,365.33 384.66,366.01 385.38,366.69 386.11,367.37 386.83,368.05 387.56,368.72 388.30,369.39 389.03,370.06 389.77,370.72 390.51,371.38 391.26,372.04 392.00,372.69 392.76,373.33 393.51,373.97 394.27,374.61 395.03,375.24 395.80,375.86 396.57,376.48 397.34,377.10 398.12,377.71 398.90,378.31 399.69,378.91 400.48,379.50 401.28,380.08 402.08,380.65 402.88,381.22 404.38,382.25 412.84,387.41 421.69,391.73 430.89,395.22 440.38,397.84 450.07,399.58 459.88,400.41 469.72,400.34 479.52,399.35 489.18,397.47 498.63,394.70 507.78,391.07 516.55,386.61 524.88,381.36 532.69,375.37 539.91,368.68 546.48,361.35 552.35,353.44 557.46,345.03 561.78,336.18 565.26,326.97 567.87,317.48 569.60,307.79 570.42,297.98 570.34,288.14 569.35,278.34 567.45,268.68 566.88,266.44 566.62,265.50 566.35,264.55 566.08,263.60 565.79,262.66 565.50,261.72 565.20,260.78 564.89,259.84 564.58,258.91 564.26,257.97 563.93,257.04 563.59,256.11 563.25,255.18 562.90,254.26 562.55,253.33 562.19,252.41 561.82,251.49 561.45,250.57 561.08,249.66 560.69,248.74 560.31,247.83 559.92,246.91 559.52,246.00 559.13,245.09 558.72,244.19 558.32,243.28 557.91,242.37 557.49,241.47 557.08,240.57 556.66,239.67 556.23,238.76 555.81,237.86 555.38,236.96 554.95,236.06 554.52,235.17 554.09,234.27 553.66,233.37 553.22,232.47 552.78,231.57 552.35,230.68 551.91,229.78 551.10,228.12 478.78,80.20 478.34,79.30 477.90,78.40 477.46,77.50 477.02,76.60 476.58,75.71 476.14,74.81 475.70,73.92 475.26,73.02 474.81,72.13 474.37,71.24 473.92,70.35 473.47,69.46 473.02,68.57 472.57,67.68 472.11,66.79 471.66,65.91 471.20,65.03 470.74,64.15 470.27,63.27 469.80,62.39 469.33,61.51 468.86,60.64 468.38,59.77 467.90,58.90 467.41,58.04 466.93,57.17 466.43,56.31 465.94,55.45 465.44,54.60 464.93,53.74 464.42,52.89 463.90,52.05 463.39,51.21 462.86,50.37 462.33,49.53 461.80,48.70 461.26,47.87 460.71,47.04 460.16,46.22 459.60,45.41 459.04,44.60 458.47,43.79 457.90,42.99 457.31,42.19 456.73,41.40 456.13,40.61 455.53,39.83 454.93,39.05 454.31,38.28 453.69,37.51 453.07,36.75 452.43,36.00 451.79,35.25 450.77,34.09 443.80,27.06 436.22,20.81 428.04,15.36 419.35,10.75 410.25,7.05 400.82,4.28 391.15,2.47 381.36,1.64 371.53,1.81 361.77,2.96 352.17,5.09 342.84,8.17 333.86,12.18 325.34,17.07 317.35,22.79 309.97,29.29 303.29,36.50 297.36,44.35 292.26,52.75 288.03,61.62 284.71,70.87 284.32,72.19 284.05,73.14 283.80,74.09 283.55,75.04 283.31,75.99 283.08,76.95 282.86,77.91 282.64,78.87 282.44,79.83 282.24,80.80 282.05,81.77 281.87,82.74 281.70,83.71 281.53,84.68 281.37,85.66 281.22,86.63 281.08,87.61 280.94,88.59 280.81,89.57 280.69,90.55 280.57,91.53 280.46,92.52 280.36,93.50 280.26,94.49 280.17,95.47 280.08,96.46 280.00,97.45 279.92,98.43 279.85,99.42 279.78,100.41 279.72,101.40 279.66,102.39 279.61,103.39 279.56,104.38 279.51,105.37 279.47,106.36 279.43,107.36 279.40,108.35 279.36,109.34 279.34,110.34 279.31,111.33 279.29,112.33 279.27,113.32 279.25,114.32 279.23,115.32 279.22,116.31 279.21,117.31 279.19,118.31 279.18,119.30 279.18,120.30 279.17,121.30 279.16,122.30 279.16,123.30 279.15,124.30 279.14,125.86 279.09,136.69"/>
    </edge>
    <edge id="-91" from="91.71" to="91.89" priority="1" shape="157.03,270.59 147.62,270.54 146.62,270.54 145.62,270.53 144.62,270.53 143.62,270.52 142.62,270.52 141.62,270.52 140.62,270.52 139.62,270.52 138.62,270.52 137.62,270.52 136.62,270.52 135.62,270.53 134.62,270.54 133.62,270.55 132.62,270.56 131.62,270.58 130.62,270.60 129.62,270.62 128.62,270.64 127.62,270.67 126.62,270.70 125.62,270.73 124.62,270.77 123.62,270.81 122.62,270.86 121.62,270.91 120.62,270.96 119.63,271.02 118.63,271.09 117.63,271.16 116.63,271.23 115.64,271.31 114.64,271.39 113.64,271.48 112.65,271.58 111.65,271.68 110.66,271.79 109.67,271.91 108.67,272.03 107.68,272.15 106.69,272.29 105.70,272.43 104.71,272.58 103.72,272.73 102.74,272.89 101.75,273.06 100.00,273.39 90.26,275.66 80.75,278.72 71.51,282.54 62.61,287.10 54.11,292.36 46.07,298.30 38.53,304.87 31.55,312.02 25.18,319.72 19.45,327.92 14.40,336.55 10.07,345.56 6.49,354.89 3.67,364.48 1.64,374.27 0.42,384.20 0.00,394.18 0.39,404.17 1.60,414.10 3.60,423.89 6.39,433.49 9.95,442.83 14.26,451.86 15.12,453.45 15.60,454.33 16.09,455.20 16.59,456.07 17.09,456.93 17.60,457.79 18.12,458.65 18.64,459.50 19.17,460.35 19.71,461.19 20.25,462.03 20.79,462.87 21.34,463.71 21.90,464.54 22.46,465.37 23.02,466.19 23.59,467.01 24.17,467.83 24.74,468.65 25.33,469.46 25.91,470.27 26.50,471.08 27.10,471.88 27.69,472.68 28.30,473.48 28.90,474.28 29.51,475.07 30.12,475.87 30.73,476.66 31.35,477.45 31.96,478.23 32.58,479.02 33.21,479.80 33.83,480.58 34.46,481.36 35.09,482.14 35.72,482.91 36.35,483.69 36.98,484.46 37.62,485.23 38.25,486.01 38.89,486.78 39.53,487.55 40.17,488.32 40.80,489.09 41.44,489.86 42.08,490.62 43.22,491.99 53.44,504.25 54.08,505.02 54.72,505.79 55.36,506.56 56.00,507.33 56.64,508.09 57.29,508.86 57.93,509.63 58.57,510.39 59.22,511.16 59.86,511.92 60.51,512.68 61.15,513.45 61.80,514.21 62.45,514.97 63.10,515.73 63.76,516.48 64.41,517.24 65.07,517.99 65.73,518.75 66.39,519.50 67.05,520.25 67.72,520.99 68.38,521.74 69.05,522.48 69.72,523.22 70.40,523.96 71.08,524.70 71.76,525.43 72.44,526.16 73.12,526.89 73.81,527.61 74.51,528.33 75.20,529.05 75.90,529.77 76.60,530.48 77.31,531.19 78.02,531.89 78.73,532.59 79.45,533.29 80.17,533.99 80.89,534.67 81.62,535.36 82.35,536.04 83.09,536.72 83.83,537.39 84.57,538.06 85.32,538.72 86.08,539.38 86.83,540.03 87.60,540.68 88.36,541.32 89.13,541.96 89.91,542.59 90.69,543.21 91.48,543.83 92.27,544.44 93.06,545.05 93.86,545.65 94.67,546.24 95.47,546.83 96.29,547.41 97.11,547.98 97.96,548.57 106.47,553.82 115.41,558.29 124.71,561.96 134.29,564.79 144.09,566.76 154.03,567.86 164.03,568.08 174.00,567.41 183.88,565.86 193.58,563.44 203.02,560.18 212.15,556.09 220.87,551.21 229.13,545.58 236.86,539.24 244.00,532.25 250.50,524.65 256.29,516.50 261.34,507.87 265.61,498.84 269.07,489.45 269.88,486.81 270.15,485.85 270.42,484.88 270.68,483.92 270.93,482.95 271.17,481.98 271.41,481.01 271.64,480.03 271.86,479.06 272.07,478.08 272.27,477.10 272.47,476.12 272.66,475.14 272.84,474.16 273.02,473.17 273.19,472.19 273.35,471.20 273.51,470.21 273.66,469.22 273.80,468.23 273.94,467.24 274.07,466.25 274.20,465.26 274.32,464.27 274.43,463.27 274.54,462.28 274.64,461.29 274.74,460.29 274.84,459.29 274.92,458.30 275.01,457.30 275.09,456.30 275.16,455.31 275.23,454.31 275.30,453.31 275.36,452.31 275.42,451.32 275.47,450.32 275.52,449.32 275.57,448.32 275.62,447.32 275.66,446.32 275.69,445.32 275.73,444.32 275.76,443.32 275.79,442.32 275.82,441.32 275.84,440.32 275.86,439.32 275.88,438.32 275.90,437.33 275.92,436.33 275.93,435.33 275.94,434.33 275.95,433.33 275.96,432.33 275.97,431.33 275.98,430.33 275.99,429.33 275.99,428.33 276.00,427.33 276.01,426.33 276.01,425.33 276.02,424.29 276.09,409.18">
        <lane id="-91_0" index="0" speed="13.90" length="697.29" shape="157.02,272.24 147.61,272.19 146.61,272.19 145.61,272.18 144.61,272.18 143.61,272.17 142.61,272.17 141.61,272.17 140.61,272.17 139.62,272.17 138.62,272.17 137.62,272.17 136.62,272.17 135.63,272.18 134.63,272.19 133.63,272.20 132.64,272.21 131.64,272.23 130.65,272.25 129.65,272.27 128.66,272.29 127.66,272.32 126.67,272.35 125.68,272.38 124.68,272.42 123.69,272.46 122.70,272.51 121.71,272.56 120.71,272.61 119.72,272.67 118.73,272.73 117.74,272.80 116.76,272.88 115.77,272.95 114.78,273.04 113.79,273.13 112.81,273.22 111.82,273.32 110.84,273.43 109.85,273.54 108.87,273.66 107.89,273.79 106.91,273.92 105.93,274.06 104.96,274.21 103.98,274.36 103.01,274.52 102.03,274.69 100.30,275.01 90.64,277.27 81.25,280.29 72.14,284.06 63.36,288.57 54.98,293.76 47.05,299.62 39.61,306.11 32.73,313.18 26.45,320.78 20.80,328.86 15.83,337.38 11.56,346.27 8.03,355.48 5.26,364.95 3.26,374.61 2.06,384.40 1.65,394.25 2.04,404.11 3.23,413.90 5.22,423.56 7.98,433.03 11.49,442.25 15.75,451.14 16.57,452.67 17.05,453.53 17.53,454.39 18.02,455.24 18.52,456.10 19.02,456.95 19.53,457.79 20.05,458.64 20.57,459.47 21.10,460.31 21.63,461.14 22.17,461.97 22.72,462.80 23.27,463.62 23.82,464.44 24.38,465.26 24.95,466.07 25.52,466.88 26.09,467.69 26.67,468.50 27.25,469.30 27.84,470.10 28.42,470.90 29.02,471.70 29.61,472.49 30.21,473.28 30.82,474.07 31.42,474.86 32.03,475.65 32.65,476.43 33.26,477.21 33.88,477.99 34.50,478.77 35.12,479.55 35.74,480.32 36.37,481.10 37.00,481.87 37.63,482.64 38.26,483.42 38.89,484.19 39.53,484.96 40.16,485.73 40.80,486.50 41.44,487.26 42.07,488.03 42.71,488.80 43.35,489.57 44.49,490.94 54.71,503.20 55.35,503.97 55.99,504.73 56.63,505.50 57.27,506.27 57.91,507.03 58.55,507.80 59.19,508.57 59.84,509.33 60.48,510.09 61.12,510.86 61.77,511.62 62.41,512.38 63.06,513.14 63.71,513.89 64.36,514.65 65.01,515.41 65.66,516.16 66.31,516.91 66.97,517.66 67.63,518.41 68.29,519.15 68.95,519.90 69.61,520.64 70.28,521.38 70.95,522.11 71.62,522.85 72.29,523.58 72.97,524.31 73.64,525.03 74.33,525.75 75.01,526.47 75.70,527.19 76.39,527.90 77.08,528.61 77.78,529.32 78.48,530.02 79.18,530.72 79.89,531.42 80.60,532.11 81.31,532.80 82.03,533.48 82.75,534.16 83.47,534.83 84.20,535.50 84.94,536.17 85.67,536.83 86.41,537.48 87.16,538.13 87.91,538.78 88.66,539.42 89.42,540.05 90.18,540.68 90.95,541.31 91.72,541.92 92.50,542.53 93.28,543.14 94.06,543.74 94.85,544.33 95.64,544.92 96.44,545.49 97.25,546.07 98.05,546.63 98.89,547.21 107.33,552.41 116.15,556.82 125.31,560.43 134.76,563.21 144.42,565.15 154.21,566.22 164.06,566.43 173.89,565.76 183.62,564.23 193.18,561.84 202.49,558.62 211.47,554.58 220.07,549.77 228.20,544.22 235.82,537.97 242.85,531.07 249.24,523.57 254.95,515.54 259.92,507.04 264.12,498.13 267.52,488.88 268.30,486.33 268.57,485.39 268.83,484.44 269.09,483.49 269.33,482.53 269.57,481.58 269.80,480.62 270.03,479.66 270.25,478.69 270.46,477.73 270.66,476.76 270.85,475.80 271.04,474.83 271.22,473.85 271.40,472.88 271.56,471.91 271.72,470.93 271.88,469.95 272.03,468.98 272.17,468.00 272.31,467.02 272.44,466.03 272.56,465.05 272.68,464.07 272.79,463.08 272.90,462.10 273.00,461.11 273.10,460.13 273.19,459.14 273.28,458.15 273.36,457.16 273.44,456.17 273.52,455.18 273.59,454.19 273.65,453.20 273.71,452.21 273.77,451.22 273.83,450.23 273.88,449.24 273.92,448.24 273.97,447.25 274.01,446.25 274.04,445.26 274.08,444.27 274.11,443.27 274.14,442.28 274.17,441.28 274.19,440.28 274.21,439.29 274.23,438.29 274.25,437.30 274.27,436.30 274.28,435.30 274.29,434.30 274.30,433.31 274.31,432.31 274.32,431.31 274.33,430.31 274.34,429.31 274.34,428.32 274.35,427.32 274.36,426.32 274.36,425.32 274.37,424.28 274.43,410.67"/>
    </edge>
    <edge id="71" from="2" to="91.71" priority="1" shape="258.15,271.09 257.02,271.08 157.03,270.59">
        <lane id="71_0" index="0" speed="13.90" length="108.40" shape="265.42,272.77 257.02,272.73 157.02,272.24"/>
    </edge>
    <edge id="82" from="90.82" to="2" priority="1" shape="369.03,352.87 298.46,282.02">
        <lane id="82_0" index="0" speed="13.90" length="118.50" shape="367.86,354.04 284.24,270.08"/>
    </edge>
    <edge id="88" from="90.88" to="2" priority="1" shape="277.43,138.18 276.84,258.18">
        <lane id="88_0" index="0" speed="13.90" length="124.33" shape="285.68,139.72 285.06,264.06"/>
        <lane id="88_1" index="1" speed="13.90" length="124.33" shape="282.38,139.71 281.76,264.04"/>
        <lane id="88_2" index="2" speed="13.90" length="124.33" shape="279.08,139.69 278.46,264.02"/>
    </edge>
    <edge id="89" from="91.89" to="2" priority="1" shape="276.09,409.18 276.68,289.18">
        <lane id="89_0" index="0" speed="13.90" length="131.75" shape="267.85,407.64 268.50,275.89"/>
        <lane id="89_1" index="1" speed="13.90" length="131.75" shape="271.15,407.65 271.80,275.91"/>
        <lane id="89_2" index="2" speed="13.90" length="131.75" shape="274.45,407.67 275.10,275.92"/>
    </edge>
    <edge id="90" from="90.88" to="90.82" priority="1" shape="277.43,138.18 277.49,125.86 277.50,124.29 277.51,123.29 277.51,122.29 277.52,121.29 277.53,120.29 277.53,119.29 277.54,118.29 277.56,117.29 277.57,116.29 277.58,115.29 277.60,114.29 277.62,113.29 277.64,112.29 277.66,111.29 277.69,110.29 277.72,109.29 277.75,108.29 277.78,107.29 277.82,106.29 277.86,105.29 277.91,104.29 277.96,103.30 278.01,102.30 278.07,101.30 278.13,100.30 278.20,99.30 278.27,98.31 278.35,97.31 278.44,96.31 278.52,95.32 278.62,94.32 278.72,93.33 278.82,92.33 278.94,91.34 279.05,90.34 279.18,89.35 279.31,88.36 279.45,87.37 279.59,86.38 279.75,85.39 279.91,84.41 280.07,83.42 280.25,82.44 280.43,81.45 280.62,80.47 280.82,79.49 281.03,78.51 281.25,77.54 281.47,76.56 281.71,75.59 281.95,74.62 282.20,73.65 282.47,72.69 282.74,71.73 283.16,70.31 286.54,60.91 290.85,51.89 296.05,43.35 302.08,35.38 308.88,28.06 316.39,21.45 324.52,15.64 333.19,10.67 342.32,6.61 351.82,3.48 361.58,1.32 371.51,0.16 381.50,0.00 391.46,0.85 401.28,2.69 410.87,5.52 420.13,9.30 428.95,13.98 437.27,19.54 444.98,25.90 452.01,33.00 453.04,34.18 453.69,34.94 454.34,35.70 454.97,36.47 455.60,37.25 456.23,38.03 456.84,38.82 457.45,39.62 458.05,40.41 458.65,41.22 459.24,42.03 459.82,42.84 460.40,43.66 460.96,44.48 461.53,45.30 462.09,46.13 462.64,46.97 463.18,47.81 463.73,48.65 464.26,49.49 464.79,50.34 465.31,51.19 465.83,52.05 466.35,52.90 466.86,53.76 467.36,54.63 467.87,55.49 468.36,56.36 468.85,57.23 469.34,58.10 469.83,58.98 470.31,59.85 470.78,60.73 471.26,61.61 471.73,62.50 472.20,63.38 472.66,64.27 473.12,65.15 473.58,66.04 474.04,66.93 474.49,67.82 474.94,68.71 475.39,69.61 475.84,70.50 476.29,71.40 476.73,72.29 477.18,73.19 477.62,74.08 478.06,74.98 478.50,75.88 478.94,76.78 479.38,77.67 479.82,78.57 480.26,79.47 552.58,227.40 553.39,229.05 553.83,229.95 554.27,230.85 554.71,231.75 555.14,232.65 555.58,233.55 556.01,234.45 556.44,235.35 556.87,236.26 557.30,237.16 557.73,238.06 558.15,238.97 558.57,239.88 558.99,240.78 559.41,241.69 559.82,242.61 560.23,243.52 560.64,244.43 561.04,245.35 561.44,246.27 561.83,247.18 562.22,248.11 562.60,249.03 562.98,249.95 563.36,250.88 563.73,251.81 564.09,252.74 564.45,253.68 564.80,254.61 565.14,255.55 565.48,256.49 565.82,257.43 566.14,258.38 566.46,259.33 566.77,260.28 567.08,261.23 567.37,262.19 567.66,263.14 567.94,264.10 568.21,265.07 568.47,266.03 569.07,268.37 570.99,278.18 571.99,288.13 572.07,298.12 571.22,308.08 569.46,317.92 566.80,327.56 563.26,336.91 558.87,345.89 553.68,354.43 547.71,362.45 541.03,369.89 533.69,376.68 525.76,382.76 517.30,388.08 508.38,392.60 499.09,396.28 489.49,399.09 479.68,400.99 469.73,401.99 459.74,402.05 449.78,401.20 439.94,399.43 430.31,396.76 420.96,393.21 411.98,388.82 403.45,383.61 401.93,382.57 401.11,381.99 400.30,381.41 399.50,380.82 398.69,380.22 397.90,379.62 397.10,379.01 396.32,378.39 395.53,377.77 394.75,377.14 393.98,376.51 393.21,375.87 392.44,375.23 391.68,374.58 390.92,373.93 390.17,373.28 389.42,372.62 388.67,371.95 387.92,371.28 387.18,370.61 386.44,369.94 385.71,369.26 384.98,368.58 384.25,367.89 383.52,367.21 382.80,366.52 382.08,365.83 381.36,365.13 380.64,364.43 379.92,363.74 379.21,363.04 378.49,362.34 377.78,361.63 377.07,360.93 376.36,360.22 375.66,359.52 374.95,358.81 374.24,358.10 373.54,357.39 372.83,356.69 372.12,355.98 369.03,352.87">
        <lane id="90_0" index="0" speed="13.90" length="855.44" shape="275.79,136.67 275.84,125.85 275.85,124.28 275.86,123.28 275.86,122.28 275.87,121.28 275.88,120.28 275.88,119.28 275.89,118.27 275.91,117.27 275.92,116.27 275.93,115.27 275.95,114.26 275.97,113.26 275.99,112.26 276.01,111.25 276.04,110.25 276.07,109.24 276.10,108.24 276.13,107.23 276.17,106.23 276.21,105.22 276.26,104.22 276.31,103.21 276.37,102.21 276.42,101.20 276.49,100.20 276.56,99.19 276.63,98.19 276.71,97.18 276.79,96.18 276.88,95.17 276.97,94.17 277.08,93.16 277.18,92.16 277.30,91.15 277.41,90.15 277.54,89.15 277.67,88.14 277.81,87.14 277.96,86.14 278.12,85.14 278.28,84.14 278.45,83.14 278.62,82.15 278.81,81.15 279.00,80.16 279.21,79.16 279.42,78.17 279.64,77.18 279.87,76.19 280.10,75.20 280.35,74.22 280.61,73.24 280.87,72.26 281.15,71.28 281.57,69.84 284.99,60.35 289.36,51.18 294.64,42.49 300.76,34.38 307.67,26.93 315.30,20.21 323.56,14.30 332.37,9.24 341.65,5.10 351.30,1.91 361.22,-0.29 371.31,-1.48 381.47,-1.65 391.60,-0.80 401.59,1.07 411.34,3.94 420.75,7.77 429.73,12.53 438.18,18.17 446.03,24.63 453.18,31.84 454.28,33.09 454.95,33.86 455.60,34.64 456.25,35.42 456.89,36.21 457.52,37.01 458.14,37.81 458.76,38.61 459.37,39.42 459.97,40.24 460.57,41.05 461.16,41.88 461.74,42.71 462.32,43.54 462.89,44.37 463.46,45.21 464.01,46.06 464.57,46.90 465.11,47.76 465.65,48.61 466.19,49.47 466.72,50.33 467.24,51.19 467.76,52.05 468.28,52.92 468.79,53.79 469.29,54.67 469.79,55.54 470.29,56.42 470.78,57.30 471.27,58.18 471.75,59.06 472.23,59.95 472.71,60.83 473.18,61.72 473.65,62.61 474.12,63.50 474.59,64.39 475.05,65.28 475.51,66.18 475.96,67.07 476.42,67.97 476.87,68.86 477.32,69.76 477.77,70.66 478.21,71.56 478.66,72.45 479.10,73.35 479.54,74.25 479.99,75.15 480.43,76.05 480.87,76.95 481.31,77.85 481.74,78.75 554.07,226.67 554.87,228.33 555.31,229.23 555.75,230.13 556.19,231.03 556.63,231.93 557.06,232.83 557.50,233.74 557.93,234.64 558.36,235.55 558.79,236.45 559.22,237.36 559.65,238.27 560.07,239.18 560.49,240.09 560.91,241.01 561.32,241.92 561.74,242.84 562.14,243.76 562.55,244.68 562.95,245.61 563.35,246.54 563.74,247.46 564.13,248.39 564.51,249.33 564.89,250.26 565.26,251.20 565.63,252.14 565.99,253.09 566.34,254.03 566.69,254.98 567.04,255.93 567.37,256.89 567.70,257.84 568.02,258.80 568.34,259.76 568.65,260.73 568.95,261.70 569.24,262.67 569.52,263.64 569.80,264.62 570.07,265.60 570.67,267.96 572.61,277.86 573.63,287.96 573.72,298.11 572.87,308.22 571.09,318.21 568.39,328.00 564.80,337.49 560.36,346.61 555.08,355.29 549.04,363.43 542.26,370.99 534.81,377.89 526.77,384.07 518.18,389.48 509.13,394.08 499.70,397.82 489.96,400.67 480.00,402.61 469.90,403.63 459.75,403.70 449.64,402.85 439.65,401.06 429.87,398.35 420.38,394.76 411.26,390.30 402.59,385.02 401.00,383.93 400.16,383.34 399.34,382.75 398.52,382.15 397.71,381.54 396.90,380.93 396.10,380.32 395.30,379.69 394.51,379.06 393.72,378.43 392.94,377.79 392.16,377.14 391.38,376.50 390.61,375.84 389.85,375.18 389.08,374.52 388.33,373.86 387.57,373.19 386.82,372.51 386.07,371.83 385.33,371.15 384.59,370.47 383.85,369.79 383.12,369.10 382.39,368.41 381.66,367.71 380.93,367.02 380.21,366.32 379.49,365.62 378.77,364.92 378.05,364.22 377.34,363.51 376.62,362.81 375.91,362.10 375.20,361.39 374.49,360.69 373.78,359.98 373.07,359.27 372.37,358.56 371.66,357.85 370.96,357.14 367.86,354.04"/>
    </edge>
    <edge id="91" from="91.89" to="91.71" priority="1" shape="276.09,409.18 276.02,424.29 276.01,425.33 276.01,426.33 276.00,427.33 275.99,428.33 275.99,429.33 275.98,430.33 275.97,431.33 275.96,432.33 275.95,433.33 275.94,434.33 275.93,435.33 275.92,436.33 275.90,437.33 275.88,438.32 275.86,439.32 275.84,440.32 275.82,441.32 275.79,442.32 275.76,443.32 275.73,444.32 275.69,445.32 275.66,446.32 275.62,447.32 275.57,448.32 275.52,449.32 275.47,450.32 275.42,451.32 275.36,452.31 275.30,453.31 275.23,454.31 275.16,455.31 275.09,456.30 275.01,457.30 274.92,458.30 274.84,459.29 274.74,460.29 274.64,461.29 274.54,462.28 274.43,463.27 274.32,464.27 274.20,465.26 274.07,466.25 273.94,467.24 273.80,468.23 273.66,469.22 273.51,470.21 273.35,471.20 273.19,472.19 273.02,473.17 272.84,474.16 272.66,475.14 272.47,476.12 272.27,477.10 272.07,478.08 271.86,479.06 271.64,480.03 271.41,481.01 271.17,481.98 270.93,482.95 270.68,483.92 270.42,484.88 270.15,485.85 269.88,486.81 269.07,489.45 265.61,498.84 261.34,507.87 256.29,516.50 250.50,524.65 244.00,532.25 236.86,539.24 229.13,545.58 220.87,551.21 212.15,556.09 203.02,560.18 193.58,563.44 183.88,565.86 174.00,567.41 164.03,568.08 154.03,567.86 144.09,566.76 134.29,564.79 124.71,561.96 115.41,558.29 106.47,553.82 97.96,548.57 97.11,547.98 96.29,547.41 95.47,546.83 94.67,546.24 93.86,545.65 93.06,545.05 92.27,544.44 91.48,543.83 90.69,543.21 89.91,542.59 89.13,541.96 88.36,541.32 87.60,540.68 86.83,540.03 86.08,539.38 85.32,538.72 84.57,538.06 83.83,537.39 83.09,536.72 82.35,536.04 81.62,535.36 80.89,534.67 80.17,533.99 79.45,533.29 78.73,532.59 78.02,531.89 77.31,531.19 76.60,530.48 75.90,529.77 75.20,529.05 74.51,528.33 73.81,527.61 73.12,526.89 72.44,526.16 71.76,525.43 71.08,524.70 70.40,523.96 69.72,523.22 69.05,522.48 68.38,521.74 67.72,520.99 67.05,520.25 66.39,519.50 65.73,518.75 65.07,517.99 64.41,517.24 63.76,516.48 63.10,515.73 62.45,514.97 61.80,514.21 61.15,513.45 60.51,512.68 59.86,511.92 59.22,511.16 58.57,510.39 57.93,509.63 57.29,508.86 56.64,508.09 56.00,507.33 55.36,506.56 54.72,505.79 54.08,505.02 53.44,504.25 43.22,491.99 42.08,490.62 41.44,489.86 40.80,489.09 40.17,488.32 39.53,487.55 38.89,486.78 38.25,486.01 37.62,485.23 36.98,484.46 36.35,483.69 35.72,482.91 35.09,482.14 34.46,481.36 33.83,480.58 33.21,479.80 32.58,479.02 31.96,478.23 31.35,477.45 30.73,476.66 30.12,475.87 29.51,475.07 28.90,474.28 28.30,473.48 27.69,472.68 27.10,471.88 26.50,471.08 25.91,470.27 25.33,469.46 24.74,468.65 24.17,467.83 23.59,467.01 23.02,466.19 22.46,465.37 21.90,464.54 21.34,463.71 20.79,462.87 20.25,462.03 19.71,461.19 19.17,460.35 18.64,459.50 18.12,458.65 17.60,457.79 17.09,456.93 16.59,456.07 16.09,455.20 15.60,454.33 15.12,453.45 14.26,451.86 9.95,442.83 6.39,433.49 3.60,423.89 1.60,414.10 0.39,404.17 0.00,394.18 0.42,384.20 1.64,374.27 3.67,364.48 6.49,354.89 10.07,345.56 14.40,336.55 19.45,327.92 25.18,319.72 31.55,312.02 38.53,304.87 46.07,298.30 54.11,292.36 62.61,287.10 71.51,282.54 80.75,278.72 90.26,275.66 100.00,273.39 101.75,273.06 102.74,272.89 103.72,272.73 104.71,272.58 105.70,272.43 106.69,272.29 107.68,272.15 108.67,272.03 109.67,271.91 110.66,271.79 111.65,271.68 112.65,271.58 113.64,271.48 114.64,271.39 115.64,271.31 116.63,271.23 117.63,271.16 118.63,271.09 119.63,271.02 120.62,270.96 121.62,270.91 122.62,270.86 123.62,270.81 124.62,270.77 125.62,270.73 126.62,270.70 127.62,270.67 128.62,270.64 129.62,270.62 130.62,270.60 131.62,270.58 132.62,270.56 133.62,270.55 134.62,270.54 135.62,270.53 136.62,270.52 137.62,270.52 138.62,270.52 139.62,270.52 140.62,270.52 141.62,270.52 142.62,270.52 143.62,270.52 144.62,270.53 145.62,270.53 146.62,270.54 147.62,270.54 157.03,270.59">