<edges>

	<edge id="1" from="0" to="1" numLanes="3" speed="28.">
		<split lanes="0;1" pos="50"/>
	</edge>

</edges>




