<?xml version="1.0" encoding="UTF-8"?>

<!-- generated on 2022-01-08 12:16:10 by Eclipse SUMO sumo Version v1_11_0+0950-9062b48
This data file and the accompanying materials
are made available under the terms of the Eclipse Public License v2.0
which accompanies this distribution, and is available at
http://www.eclipse.org/legal/epl-v20.html
SPDX-License-Identifier: EPL-2.0
<configuration xmlns:xsi="http://www.w3.org/2001/XMLSchema-instance" xsi:noNamespaceSchemaLocation="http://sumo.dlr.de/xsd/sumoConfiguration.xsd">

    <input>
        <net-file value="net2.net.xml"/>
        <route-files value="input_routes.rou.xml"/>
        <additional-files value="input_additional.add.xml,input_additional2.add.xml"/>
    </input>

    <output>
        <write-license value="true"/>
    </output>

    <time>
        <end value="50"/>
    </time>

    <processing>
        <default.speeddev value="0"/>
    </processing>

    <report>
        <verbose value="true"/>
        <xml-validation value="never"/>
        <xml-validation.routes value="never"/>
        <duration-log.statistics value="true"/>
        <no-step-log value="true"/>
    </report>

</configuration>
-->

<tlsStates xmlns:xsi="http://www.w3.org/2001/XMLSchema-instance" xsi:noNamespaceSchemaLocation="http://sumo.dlr.de/xsd/tlsstates_file.xsd">
    <tlsState time="0.00" id="C" programID="P1" phase="0" state="GgrrGgrr"/>
    <tlsState time="5.00" id="C" programID="P1" phase="1" state="ygrrygrr"/>
    <tlsState time="8.00" id="C" programID="P1" phase="2" state="rGrrrGrr"/>
    <tlsState time="13.00" id="C" programID="P1" phase="3" state="ryrrryrr"/>
    <tlsState time="16.00" id="C" programID="P1" phase="4" state="rrGgrrGg"/>
</tlsStates>
