<?xml version="1.0" encoding="UTF-8"?>

<!-- generated on Wed 19 Feb 2014 10:46:52 AM CET by Netedit Version dev-SVN-r15634
<?xml version="1.0" encoding="UTF-8"?>

<configuration xmlns:xsi="http://www.w3.org/2001/XMLSchema-instance" xsi:noNamespaceSchemaLocation="http://sumo-sim.org/xsd/netedit.exeConfiguration.xsd">

    <input>
        <sumo-net-file value="net.net.xml"/>
    </input>

    <output>
        <output-file value="/scr1/erdm_ja/sip-svn-trunk/projects/colombo/debug/path_across_street/input_net.net.xml"/>
        <plain-output-prefix value="/scr1/erdm_ja/sip-svn-trunk/projects/colombo/debug/path_across_street/input_plain"/>
    </output>

    <processing>
        <no-turnarounds value="true"/>
        <offset.disable-normalization value="true"/>
    </processing>

</configuration>
-->

<nodes version="0.13" xmlns:xsi="http://www.w3.org/2001/XMLSchema-instance" xsi:noNamespaceSchemaLocation="http://sumo-sim.org/xsd/nodes_file.xsd">
    <location netOffset="0.00,0.00" convBoundary="-100.00,-50.00,100.00,50.00" origBoundary="-10000000000.00,-10000000000.00,10000000000.00,10000000000.00" projParameter="!"/>

    <node id="C" x="0.00" y="0.00" type="traffic_light"/>
    <node id="E" x="100.00" y="0.00" type="unregulated"/>
    <node id="N" x="0.00" y="50.00" type="unregulated"/>
    <node id="S" x="0.00" y="-50.00" type="unregulated"/>
    <node id="W" x="-100.00" y="0.00" type="unregulated"/>
</nodes>
