<?xml version="1.0" encoding="UTF-8"?>

<additional xmlns:xsi="http://www.w3.org/2001/XMLSchema-instance" xsi:noNamespaceSchemaLocation="http://sumo.dlr.de/xsd/additional_file.xsd">

    <parkingArea id="ParkAreaA" lane="a_0" startPos="200" endPos="224" roadsideCapacity="3" length="8" onRoad="true" acceptedBadges="resident guest"/>
    <parkingArea id="ParkAreaB" lane="a_0" startPos="240" endPos="264" roadsideCapacity="3" length="8" onRoad="true"/>
    
</additional>
