<?xml version="1.0" encoding="UTF-8"?>

<!-- generated on 2024-12-09 13:09:24.526334 by cutRoutes.py v1_21_0+1251-13948ed5b11
<configuration>
    <routes-output value="out.rou.xml"/>
    <network value="input_net.net.xml"/>
    <routeFiles value="input_routes.rou.xml"/>
</configuration>
-->

<routes xmlns:xsi="http://www.w3.org/2001/XMLSchema-instance" xsi:noNamespaceSchemaLocation="http://sumo.dlr.de/xsd/routes_file.xsd">
    <vType id="fast" maxSpeed="50"/>
    <vType id="slow" maxSpeed="5"/>
    <vehicle depart="0.00" id="straight" type="slow" departLane="best" departSpeed="max">
        <route edges="middle end"/>
    </vehicle>
</routes>
