<?xml version="1.0"?>

<!-- generated on Fri Dec  2 20:44:58 2011 by SUMO sumo Version dev-SVN-r11571
<?xml version="1.0" encoding="UTF-8"?>

<configuration xmlns:xsi="http://www.w3.org/2001/XMLSchema-instance" xsi:noNamespaceSchemaLocation="http://sumo.sf.net/xsd/sumoConfiguration.xsd">

    <input>
        <net-file value="net.net.xml"/>
        <additional-files value="input_routes.rou.xml,input_additional.add.xml"/>
    </input>

    <time>
        <begin value="0"/>
        <end value="150"/>
    </time>

    <report>
        <no-duration-log value="true"/>
        <no-step-log value="true"/>
    </report>

</configuration>
-->

<netstats>
    <interval begin="0.00" end="15.00" id="dump_15">
        <edge id="1si" sampledSeconds="23.00" traveltime="34.78" density="6.47" occupancy="1.08" waitingTime="0.00" speed="6.82" departed="2" arrived="0" entered="0" left="0" laneChangedFrom="3" laneChangedTo="3"/>
    </interval>
    <interval begin="15.00" end="30.00" id="dump_15">
        <edge id="1si" sampledSeconds="30.00" traveltime="63.26" density="8.43" occupancy="1.41" waitingTime="8.00" speed="3.75" departed="0" arrived="0" entered="0" left="0" laneChangedFrom="1" laneChangedTo="1"/>
    </interval>
    <interval begin="30.00" end="45.00" id="dump_15">
        <edge id="1si" sampledSeconds="30.00" traveltime="100000.00" density="8.43" occupancy="1.41" waitingTime="30.00" speed="0.00" departed="0" arrived="0" entered="0" left="0" laneChangedFrom="0" laneChangedTo="0"/>
    </interval>
    <interval begin="45.00" end="60.00" id="dump_15">
        <edge id="1si" sampledSeconds="4.25" traveltime="201.53" density="1.20" occupancy="0.20" waitingTime="1.00" speed="1.18" departed="0" arrived="0" entered="0" left="2" laneChangedFrom="0" laneChangedTo="0"/>
        <edge id="4o" sampledSeconds="25.75" traveltime="88.40" density="3.51" occupancy="1.76" waitingTime="0.00" speed="5.53" departed="0" arrived="0" entered="2" left="0" laneChangedFrom="0" laneChangedTo="0"/>
    </interval>
    <interval begin="60.00" end="75.00" id="dump_15">
        <edge id="4o" sampledSeconds="30.00" traveltime="65.15" density="4.09" occupancy="2.05" waitingTime="0.00" speed="7.50" departed="0" arrived="0" entered="0" left="0" laneChangedFrom="0" laneChangedTo="0"/>
    </interval>
    <interval begin="75.00" end="90.00" id="dump_15">
        <edge id="4o" sampledSeconds="30.00" traveltime="65.15" density="4.09" occupancy="2.05" waitingTime="0.00" speed="7.50" departed="0" arrived="0" entered="0" left="0" laneChangedFrom="0" laneChangedTo="0"/>
    </interval>
    <interval begin="90.00" end="105.00" id="dump_15">
        <edge id="4o" sampledSeconds="24.63" traveltime="70.27" density="3.36" occupancy="1.68" waitingTime="0.00" speed="6.95" departed="0" arrived="0" entered="0" left="0" laneChangedFrom="0" laneChangedTo="0"/>
    </interval>
    <interval begin="105.00" end="120.00" id="dump_15">
        <edge id="4o" sampledSeconds="15.00" traveltime="97.73" density="2.05" occupancy="1.02" waitingTime="0.00" speed="5.00" departed="0" arrived="0" entered="0" left="0" laneChangedFrom="0" laneChangedTo="0"/>
    </interval>
    <interval begin="120.00" end="135.00" id="dump_15">
        <edge id="4o" sampledSeconds="15.00" traveltime="97.73" density="2.05" occupancy="1.02" waitingTime="0.00" speed="5.00" departed="0" arrived="0" entered="0" left="0" laneChangedFrom="0" laneChangedTo="0"/>
    </interval>
    <interval begin="135.00" end="150.00" id="dump_15">
        <edge id="4o" sampledSeconds="12.74" traveltime="97.73" density="1.74" occupancy="0.87" waitingTime="0.00" speed="5.00" departed="0" arrived="0" entered="0" left="0" laneChangedFrom="0" laneChangedTo="0"/>
    </interval>
</netstats>
