<?xml version="1.0" encoding="UTF-8"?>

<!-- generated on 2022-10-14 15:36:23 by Eclipse SUMO netedit Version v1_14_1+1757-dea40b50d78
-->

<routes xmlns:xsi="http://www.w3.org/2001/XMLSchema-instance" xsi:noNamespaceSchemaLocation="http://sumo.dlr.de/xsd/routes_file.xsd">
    <!-- Vehicles, persons and containers (sorted by depart) -->
    <container id="c_0" depart="0.00">
        <tranship from="gneE2" to="gneE2" departPos="0.00"/>
        <tranship containerStop="containerStopA" departPos="12.30"/>
    </container>
</routes>
