<?xml version="1.0"?>

<!-- generated on 02/12/10 11:17:49 by SUMO sumo Version dev-SVN-r8242
<configuration>

    <input>
        <net-file value="net.net.xml"/>
        <route-files value="input_routes.rou.xml"/>
        <additional-files value="input_additional.add.xml"/>
    </input>

    <time>
        <begin value="0"/>
        <end value="1000"/>
    </time>

    <report>
        <no-duration-log value="true"/>
        <no-step-log value="true"/>
    </report>

</configuration>
-->

<netstats>
   <interval begin="0" end="300" id="dump_300">
      <edge id="1fi" sampledSeconds="718.78" traveltime="30.19" density="9.64" occupancy="4.82" waitingTime="0.00" speed="8.23" departed="19" arrived="0" entered="10" left="19" laneChangedFrom="0" laneChangedTo="0"/>
      <edge id="1o" sampledSeconds="513.37" traveltime="46.67" density="3.50" occupancy="1.75" waitingTime="0.00" speed="10.47" departed="0" arrived="0" entered="11" left="11" laneChangedFrom="0" laneChangedTo="0"/>
      <edge id="1si" sampledSeconds="877.31" traveltime="49.76" density="12.33" occupancy="2.06" waitingTime="141.91" speed="4.77" departed="0" arrived="0" entered="19" left="9" laneChangedFrom="0" laneChangedTo="0"/>
      <edge id="2fi" sampledSeconds="785.74" traveltime="30.84" density="10.54" occupancy="5.27" waitingTime="0.00" speed="8.06" departed="20" arrived="2" entered="9" left="24" laneChangedFrom="0" laneChangedTo="0"/>
      <edge id="2o" sampledSeconds="549.40" traveltime="48.50" density="3.75" occupancy="1.87" waitingTime="0.00" speed="10.07" departed="0" arrived="0" entered="17" left="9" laneChangedFrom="0" laneChangedTo="0"/>
      <edge id="2si" sampledSeconds="807.59" traveltime="36.44" density="11.35" occupancy="1.89" waitingTime="112.19" speed="6.51" departed="0" arrived="0" entered="24" left="11" laneChangedFrom="0" laneChangedTo="0"/>
      <edge id="3fi" sampledSeconds="1183.06" traveltime="32.55" density="15.87" occupancy="7.93" waitingTime="0.00" speed="7.63" departed="40" arrived="0" entered="0" left="34" laneChangedFrom="0" laneChangedTo="0"/>
      <edge id="3o" sampledSeconds="87.35" traveltime="44.65" density="0.60" occupancy="0.30" waitingTime="0.00" speed="10.94" departed="0" arrived="0" entered="6" left="0" laneChangedFrom="0" laneChangedTo="0"/>
      <edge id="3si" sampledSeconds="1179.72" traveltime="36.86" density="16.58" occupancy="2.76" waitingTime="104.26" speed="6.43" departed="0" arrived="0" entered="34" left="30" laneChangedFrom="0" laneChangedTo="0"/>
      <edge id="4fi" sampledSeconds="205.61" traveltime="22.85" density="2.76" occupancy="1.38" waitingTime="0.00" speed="10.88" departed="0" arrived="0" entered="9" left="9" laneChangedFrom="0" laneChangedTo="0"/>
      <edge id="4o" sampledSeconds="666.71" traveltime="48.01" density="4.55" occupancy="2.27" waitingTime="0.00" speed="10.18" departed="0" arrived="0" entered="22" left="9" laneChangedFrom="0" laneChangedTo="0"/>
      <edge id="4si" sampledSeconds="216.57" traveltime="24.06" density="3.04" occupancy="0.51" waitingTime="49.87" speed="9.86" departed="0" arrived="0" entered="9" left="9" laneChangedFrom="0" laneChangedTo="0"/>
   </interval>
   <interval begin="300" end="600" id="dump_300">
      <edge id="1fi" sampledSeconds="1880.17" traveltime="27.87" density="25.22" occupancy="12.61" waitingTime="0.00" speed="8.92" departed="31" arrived="0" entered="35" left="70" laneChangedFrom="0" laneChangedTo="0"/>
      <edge id="1o" sampledSeconds="2001.94" traveltime="47.98" density="13.66" occupancy="6.83" waitingTime="0.00" speed="10.18" departed="0" arrived="0" entered="47" left="35" laneChangedFrom="0" laneChangedTo="0"/>
      <edge id="1si" sampledSeconds="5486.36" traveltime="83.50" density="77.12" occupancy="12.85" waitingTime="166.67" speed="2.84" departed="0" arrived="0" entered="70" left="55" laneChangedFrom="0" laneChangedTo="0"/>
      <edge id="2fi" sampledSeconds="1958.09" traveltime="29.36" density="26.27" occupancy="13.13" waitingTime="0.00" speed="8.46" departed="30" arrived="26" entered="65" left="65" laneChangedFrom="0" laneChangedTo="0"/>
      <edge id="2o" sampledSeconds="3411.49" traveltime="48.42" density="23.27" occupancy="11.64" waitingTime="0.00" speed="10.09" departed="0" arrived="0" entered="71" left="65" laneChangedFrom="0" laneChangedTo="0"/>
      <edge id="2si" sampledSeconds="3394.88" traveltime="51.26" density="47.72" occupancy="7.95" waitingTime="132.99" speed="4.63" departed="0" arrived="0" entered="65" left="67" laneChangedFrom="0" laneChangedTo="0"/>
      <edge id="3fi" sampledSeconds="1953.16" traveltime="31.42" density="26.20" occupancy="13.10" waitingTime="0.00" speed="7.91" departed="56" arrived="25" entered="32" left="60" laneChangedFrom="0" laneChangedTo="0"/>
      <edge id="3o" sampledSeconds="1692.21" traveltime="46.81" density="11.54" occupancy="5.77" waitingTime="0.00" speed="10.44" departed="0" arrived="0" entered="37" left="32" laneChangedFrom="0" laneChangedTo="0"/>
      <edge id="3si" sampledSeconds="2771.06" traveltime="46.40" density="38.95" occupancy="6.49" waitingTime="132.62" speed="5.11" departed="0" arrived="0" entered="60" left="53" laneChangedFrom="0" laneChangedTo="0"/>
      <edge id="4fi" sampledSeconds="1629.73" traveltime="23.03" density="21.86" occupancy="10.93" waitingTime="0.00" speed="10.79" departed="0" arrived="0" entered="73" left="67" laneChangedFrom="0" laneChangedTo="0"/>
      <edge id="4o" sampledSeconds="3535.25" traveltime="47.41" density="24.12" occupancy="12.06" waitingTime="0.00" speed="10.31" departed="0" arrived="0" entered="70" left="74" laneChangedFrom="0" laneChangedTo="0"/>
      <edge id="4si" sampledSeconds="2327.72" traveltime="36.00" density="32.72" occupancy="5.45" waitingTime="96.15" speed="6.59" departed="0" arrived="0" entered="67" left="56" laneChangedFrom="0" laneChangedTo="0"/>
   </interval>
   <interval begin="600" end="900" id="dump_300">
      <edge id="1fi" sampledSeconds="2495.92" traveltime="28.06" density="33.48" occupancy="16.74" waitingTime="0.00" speed="8.86" departed="30" arrived="15" entered="73" left="87" laneChangedFrom="0" laneChangedTo="0"/>
      <edge id="1o" sampledSeconds="3566.14" traveltime="48.69" density="24.33" occupancy="12.16" waitingTime="0.00" speed="10.04" departed="0" arrived="0" entered="73" left="72" laneChangedFrom="0" laneChangedTo="0"/>
      <edge id="1si" sampledSeconds="9584.68" traveltime="124.36" density="134.72" occupancy="22.45" waitingTime="176.72" speed="1.91" departed="0" arrived="0" entered="86" left="76" laneChangedFrom="0" laneChangedTo="0"/>
      <edge id="2fi" sampledSeconds="2128.14" traveltime="29.41" density="28.55" occupancy="14.27" waitingTime="0.00" speed="8.45" departed="30" arrived="24" entered="67" left="71" laneChangedFrom="0" laneChangedTo="0"/>
      <edge id="2o" sampledSeconds="3242.36" traveltime="48.11" density="22.12" occupancy="11.06" waitingTime="0.00" speed="10.16" departed="0" arrived="0" entered="66" left="68" laneChangedFrom="0" laneChangedTo="0"/>
      <edge id="2si" sampledSeconds="3550.27" traveltime="52.03" density="49.90" occupancy="8.32" waitingTime="136.55" speed="4.56" departed="0" arrived="0" entered="71" left="75" laneChangedFrom="0" laneChangedTo="0"/>
      <edge id="3fi" sampledSeconds="1700.72" traveltime="30.61" density="22.81" occupancy="11.41" waitingTime="0.00" speed="8.12" departed="40" arrived="54" entered="68" left="58" laneChangedFrom="0" laneChangedTo="0"/>
      <edge id="3o" sampledSeconds="3256.06" traveltime="48.57" density="22.21" occupancy="11.11" waitingTime="0.00" speed="10.06" departed="0" arrived="0" entered="69" left="68" laneChangedFrom="0" laneChangedTo="0"/>
      <edge id="3si" sampledSeconds="2791.93" traveltime="48.37" density="39.24" occupancy="6.54" waitingTime="141.30" speed="4.90" departed="0" arrived="0" entered="58" left="53" laneChangedFrom="0" laneChangedTo="0"/>
      <edge id="4fi" sampledSeconds="1610.17" traveltime="23.02" density="21.60" occupancy="10.80" waitingTime="0.00" speed="10.80" departed="0" arrived="0" entered="68" left="73" laneChangedFrom="0" laneChangedTo="0"/>
      <edge id="4o" sampledSeconds="3116.53" traveltime="47.82" density="21.26" occupancy="10.63" waitingTime="0.00" speed="10.22" departed="0" arrived="0" entered="66" left="67" laneChangedFrom="0" laneChangedTo="0"/>
      <edge id="4si" sampledSeconds="3892.06" traveltime="54.89" density="54.71" occupancy="9.12" waitingTime="141.36" speed="4.32" departed="0" arrived="0" entered="73" left="63" laneChangedFrom="0" laneChangedTo="0"/>
   </interval>
   <interval begin="900" end="1000" id="dump_300">
      <edge id="1fi" sampledSeconds="832.79" traveltime="28.22" density="33.51" occupancy="16.76" waitingTime="0.00" speed="8.81" departed="10" arrived="6" entered="25" left="31" laneChangedFrom="0" laneChangedTo="0"/>
      <edge id="1o" sampledSeconds="1100.93" traveltime="48.28" density="22.53" occupancy="11.27" waitingTime="0.00" speed="10.12" departed="0" arrived="0" entered="21" left="25" laneChangedFrom="0" laneChangedTo="0"/>
      <edge id="1si" sampledSeconds="4169.23" traveltime="146.44" density="175.81" occupancy="29.30" waitingTime="55.24" speed="1.62" departed="0" arrived="0" entered="32" left="25" laneChangedFrom="0" laneChangedTo="0"/>
      <edge id="2fi" sampledSeconds="659.57" traveltime="29.48" density="26.54" occupancy="13.27" waitingTime="0.00" speed="8.43" departed="10" arrived="11" entered="23" left="23" laneChangedFrom="0" laneChangedTo="0"/>
      <edge id="2o" sampledSeconds="1048.42" traveltime="47.68" density="21.46" occupancy="10.73" waitingTime="0.00" speed="10.25" departed="0" arrived="0" entered="22" left="22" laneChangedFrom="0" laneChangedTo="0"/>
      <edge id="2si" sampledSeconds="1199.33" traveltime="52.92" density="50.57" occupancy="8.43" waitingTime="47.53" speed="4.48" departed="0" arrived="0" entered="23" left="15" laneChangedFrom="0" laneChangedTo="0"/>
      <edge id="3fi" sampledSeconds="628.40" traveltime="30.60" density="25.29" occupancy="12.64" waitingTime="0.00" speed="8.12" departed="16" arrived="14" entered="19" left="19" laneChangedFrom="0" laneChangedTo="0"/>
      <edge id="3o" sampledSeconds="1008.67" traveltime="47.14" density="20.64" occupancy="10.32" waitingTime="0.00" speed="10.37" departed="0" arrived="0" entered="18" left="20" laneChangedFrom="0" laneChangedTo="0"/>
      <edge id="3si" sampledSeconds="887.15" traveltime="46.03" density="37.41" occupancy="6.23" waitingTime="41.14" speed="5.15" departed="0" arrived="0" entered="19" left="26" laneChangedFrom="0" laneChangedTo="0"/>
      <edge id="4fi" sampledSeconds="401.33" traveltime="23.21" density="16.15" occupancy="8.08" waitingTime="0.00" speed="10.71" departed="0" arrived="0" entered="18" left="18" laneChangedFrom="0" laneChangedTo="0"/>
      <edge id="4o" sampledSeconds="961.52" traveltime="47.68" density="19.68" occupancy="9.84" waitingTime="0.00" speed="10.25" departed="0" arrived="0" entered="21" left="18" laneChangedFrom="0" laneChangedTo="0"/>
      <edge id="4si" sampledSeconds="1031.16" traveltime="55.52" density="43.48" occupancy="7.25" waitingTime="40.44" speed="4.27" departed="0" arrived="0" entered="18" left="26" laneChangedFrom="0" laneChangedTo="0"/>
   </interval>
</netstats>
