<?xml version="1.0"?>

<!-- generated on 02/14/12 12:11:48 by SUMO sumo Version dev-SVN-r11888
<?xml version="1.0" encoding="UTF-8"?>

<configuration xmlns:xsi="http://www.w3.org/2001/XMLSchema-instance" xsi:noNamespaceSchemaLocation="http://sumo.sf.net/xsd/sumoConfiguration.xsd">

    <input>
        <net-file value="net.net.xml"/>
        <route-files value="input_routes.rou.xml"/>
        <additional-files value="input_additional.add.xml"/>
    </input>

    <time>
        <begin value="0"/>
        <end value="1000"/>
    </time>

    <report>
        <no-duration-log value="true"/>
        <no-step-log value="true"/>
    </report>

</configuration>
-->

<netstats>
    <interval begin="0.00" end="60.00" id="dump_60">
        <edge id="1fi" sampledSeconds="0.00" departed="0" arrived="0" entered="0" left="0" laneChangedFrom="0" laneChangedTo="0"/>
        <edge id="1o" sampledSeconds="0.00" departed="0" arrived="0" entered="0" left="0" laneChangedFrom="0" laneChangedTo="0"/>
        <edge id="1si" sampledSeconds="0.00" departed="0" arrived="0" entered="0" left="0" laneChangedFrom="0" laneChangedTo="0"/>
        <edge id="2fi" sampledSeconds="0.00" departed="0" arrived="0" entered="0" left="0" laneChangedFrom="0" laneChangedTo="0"/>
        <edge id="2o" sampledSeconds="0.00" departed="0" arrived="0" entered="0" left="0" laneChangedFrom="0" laneChangedTo="0"/>
        <edge id="2si" sampledSeconds="0.00" departed="0" arrived="0" entered="0" left="0" laneChangedFrom="0" laneChangedTo="0"/>
        <edge id="3fi" sampledSeconds="0.00" departed="0" arrived="0" entered="0" left="0" laneChangedFrom="0" laneChangedTo="0"/>
        <edge id="3o" sampledSeconds="0.00" departed="0" arrived="0" entered="0" left="0" laneChangedFrom="0" laneChangedTo="0"/>
        <edge id="3si" sampledSeconds="0.00" departed="0" arrived="0" entered="0" left="0" laneChangedFrom="0" laneChangedTo="0"/>
        <edge id="4fi" sampledSeconds="0.00" departed="0" arrived="0" entered="0" left="0" laneChangedFrom="0" laneChangedTo="0"/>
        <edge id="4o" sampledSeconds="0.00" departed="0" arrived="0" entered="0" left="0" laneChangedFrom="0" laneChangedTo="0"/>
        <edge id="4si" sampledSeconds="0.00" departed="0" arrived="0" entered="0" left="0" laneChangedFrom="0" laneChangedTo="0"/>
    </interval>
    <interval begin="60.00" end="120.00" id="dump_60">
        <edge id="1fi" sampledSeconds="28.00" traveltime="50.12" density="1.88" occupancy="0.56" waitingTime="0.00" speed="4.96" departed="2" arrived="0" entered="0" left="0" laneChangedFrom="0" laneChangedTo="0"/>
        <edge id="1o" sampledSeconds="0.00" departed="0" arrived="0" entered="0" left="0" laneChangedFrom="0" laneChangedTo="0"/>
        <edge id="1si" sampledSeconds="0.00" departed="0" arrived="0" entered="0" left="0" laneChangedFrom="0" laneChangedTo="0"/>
        <edge id="2fi" sampledSeconds="28.00" traveltime="48.68" density="1.88" occupancy="0.56" waitingTime="0.00" speed="5.11" departed="2" arrived="0" entered="0" left="0" laneChangedFrom="0" laneChangedTo="0"/>
        <edge id="2o" sampledSeconds="0.00" departed="0" arrived="0" entered="0" left="0" laneChangedFrom="0" laneChangedTo="0"/>
        <edge id="2si" sampledSeconds="0.00" departed="0" arrived="0" entered="0" left="0" laneChangedFrom="0" laneChangedTo="0"/>
        <edge id="3fi" sampledSeconds="48.00" traveltime="52.35" density="3.22" occupancy="0.97" waitingTime="0.00" speed="4.75" departed="4" arrived="0" entered="0" left="0" laneChangedFrom="0" laneChangedTo="0"/>
        <edge id="3o" sampledSeconds="0.00" departed="0" arrived="0" entered="0" left="0" laneChangedFrom="0" laneChangedTo="0"/>
        <edge id="3si" sampledSeconds="0.00" departed="0" arrived="0" entered="0" left="0" laneChangedFrom="0" laneChangedTo="0"/>
        <edge id="4fi" sampledSeconds="0.00" departed="0" arrived="0" entered="0" left="0" laneChangedFrom="0" laneChangedTo="0"/>
        <edge id="4o" sampledSeconds="0.00" departed="0" arrived="0" entered="0" left="0" laneChangedFrom="0" laneChangedTo="0"/>
        <edge id="4si" sampledSeconds="0.00" departed="0" arrived="0" entered="0" left="0" laneChangedFrom="0" laneChangedTo="0"/>
    </interval>
    <interval begin="120.00" end="180.00" id="dump_60">
        <edge id="1fi" sampledSeconds="187.03" traveltime="31.98" density="12.54" occupancy="3.76" waitingTime="0.00" speed="7.77" departed="6" arrived="0" entered="0" left="5" laneChangedFrom="0" laneChangedTo="0"/>
        <edge id="1o" sampledSeconds="45.70" traveltime="44.81" density="1.56" occupancy="0.47" waitingTime="0.00" speed="10.91" departed="0" arrived="0" entered="2" left="0" laneChangedFrom="0" laneChangedTo="0"/>
        <edge id="1si" sampledSeconds="83.69" traveltime="19.02" density="5.88" occupancy="0.59" waitingTime="0.00" speed="12.47" departed="0" arrived="0" entered="5" left="3" laneChangedFrom="0" laneChangedTo="0"/>
        <edge id="2fi" sampledSeconds="184.98" traveltime="31.30" density="12.41" occupancy="3.72" waitingTime="0.00" speed="7.94" departed="6" arrived="0" entered="0" left="5" laneChangedFrom="0" laneChangedTo="0"/>
        <edge id="2o" sampledSeconds="0.00" departed="0" arrived="0" entered="0" left="0" laneChangedFrom="0" laneChangedTo="0"/>
        <edge id="2si" sampledSeconds="89.24" traveltime="20.43" density="6.27" occupancy="0.63" waitingTime="8.00" speed="11.61" departed="0" arrived="0" entered="5" left="2" laneChangedFrom="0" laneChangedTo="0"/>
        <edge id="3fi" sampledSeconds="366.97" traveltime="31.88" density="24.61" occupancy="7.38" waitingTime="1.00" speed="7.79" departed="12" arrived="0" entered="0" left="10" laneChangedFrom="0" laneChangedTo="0"/>
        <edge id="3o" sampledSeconds="0.00" departed="0" arrived="0" entered="0" left="0" laneChangedFrom="0" laneChangedTo="0"/>
        <edge id="3si" sampledSeconds="252.48" traveltime="31.31" density="17.74" occupancy="1.77" waitingTime="85.00" speed="7.57" departed="0" arrived="0" entered="10" left="0" laneChangedFrom="0" laneChangedTo="0"/>
        <edge id="4fi" sampledSeconds="0.00" departed="0" arrived="0" entered="0" left="0" laneChangedFrom="0" laneChangedTo="0"/>
        <edge id="4o" sampledSeconds="45.39" traveltime="47.49" density="1.55" occupancy="0.46" waitingTime="0.00" speed="10.29" departed="0" arrived="0" entered="3" left="0" laneChangedFrom="0" laneChangedTo="0"/>
        <edge id="4si" sampledSeconds="0.00" departed="0" arrived="0" entered="0" left="0" laneChangedFrom="0" laneChangedTo="0"/>
    </interval>
    <interval begin="180.00" end="240.00" id="dump_60">
        <edge id="1fi" sampledSeconds="242.44" traveltime="30.05" density="16.26" occupancy="4.88" waitingTime="0.00" speed="8.27" departed="6" arrived="0" entered="2" left="8" laneChangedFrom="0" laneChangedTo="0"/>
        <edge id="1o" sampledSeconds="55.46" traveltime="48.29" density="1.89" occupancy="0.57" waitingTime="0.00" speed="10.12" departed="0" arrived="0" entered="3" left="2" laneChangedFrom="0" laneChangedTo="0"/>
        <edge id="1si" sampledSeconds="324.80" traveltime="46.85" density="22.83" occupancy="2.28" waitingTime="137.00" speed="5.06" departed="0" arrived="0" entered="8" left="2" laneChangedFrom="0" laneChangedTo="0"/>
        <edge id="2fi" sampledSeconds="193.10" traveltime="31.86" density="12.95" occupancy="3.89" waitingTime="0.00" speed="7.80" departed="6" arrived="0" entered="2" left="6" laneChangedFrom="0" laneChangedTo="0"/>
        <edge id="2o" sampledSeconds="306.75" traveltime="47.80" density="10.46" occupancy="3.14" waitingTime="0.00" speed="10.22" departed="0" arrived="0" entered="7" left="2" laneChangedFrom="0" laneChangedTo="0"/>
        <edge id="2si" sampledSeconds="349.00" traveltime="59.04" density="24.53" occupancy="2.45" waitingTime="171.00" speed="4.02" departed="0" arrived="0" entered="6" left="5" laneChangedFrom="0" laneChangedTo="0"/>
        <edge id="3fi" sampledSeconds="380.18" traveltime="31.57" density="25.50" occupancy="7.65" waitingTime="0.00" speed="7.87" departed="12" arrived="0" entered="0" left="12" laneChangedFrom="0" laneChangedTo="0"/>
        <edge id="3o" sampledSeconds="0.00" departed="0" arrived="0" entered="0" left="0" laneChangedFrom="0" laneChangedTo="0"/>
        <edge id="3si" sampledSeconds="348.57" traveltime="28.33" density="24.50" occupancy="2.45" waitingTime="61.00" speed="8.37" departed="0" arrived="0" entered="12" left="13" laneChangedFrom="0" laneChangedTo="0"/>
        <edge id="4fi" sampledSeconds="72.56" traveltime="22.75" density="4.87" occupancy="1.46" waitingTime="0.00" speed="10.92" departed="0" arrived="0" entered="5" left="2" laneChangedFrom="0" laneChangedTo="0"/>
        <edge id="4o" sampledSeconds="354.05" traveltime="46.07" density="12.08" occupancy="3.62" waitingTime="0.00" speed="10.61" departed="0" arrived="0" entered="6" left="5" laneChangedFrom="0" laneChangedTo="0"/>
        <edge id="4si" sampledSeconds="19.54" traveltime="18.19" density="1.37" occupancy="0.14" waitingTime="0.00" speed="13.03" departed="0" arrived="0" entered="2" left="0" laneChangedFrom="0" laneChangedTo="0"/>
    </interval>
    <interval begin="240.00" end="300.00" id="dump_60">
        <edge id="1fi" sampledSeconds="247.84" traveltime="27.15" density="16.62" occupancy="4.99" waitingTime="0.00" speed="9.15" departed="4" arrived="0" entered="9" left="6" laneChangedFrom="0" laneChangedTo="0"/>
        <edge id="1o" sampledSeconds="407.28" traveltime="45.77" density="13.89" occupancy="4.17" waitingTime="0.00" speed="10.68" departed="0" arrived="0" entered="6" left="9" laneChangedFrom="0" laneChangedTo="0"/>
        <edge id="1si" sampledSeconds="476.46" traveltime="73.04" density="33.49" occupancy="3.35" waitingTime="269.00" speed="3.25" departed="0" arrived="0" entered="6" left="5" laneChangedFrom="0" laneChangedTo="0"/>
        <edge id="2fi" sampledSeconds="384.80" traveltime="28.73" density="25.81" occupancy="7.74" waitingTime="0.00" speed="8.65" departed="6" arrived="0" entered="7" left="13" laneChangedFrom="0" laneChangedTo="0"/>
        <edge id="2o" sampledSeconds="242.13" traveltime="50.28" density="8.26" occupancy="2.48" waitingTime="0.00" speed="9.72" departed="0" arrived="0" entered="10" left="7" laneChangedFrom="0" laneChangedTo="0"/>
        <edge id="2si" sampledSeconds="397.27" traveltime="33.37" density="27.92" occupancy="2.79" waitingTime="132.00" speed="7.11" departed="0" arrived="0" entered="13" left="4" laneChangedFrom="0" laneChangedTo="0"/>
        <edge id="3fi" sampledSeconds="379.20" traveltime="31.50" density="25.43" occupancy="7.63" waitingTime="0.00" speed="7.89" departed="12" arrived="0" entered="0" left="12" laneChangedFrom="0" laneChangedTo="0"/>
        <edge id="3o" sampledSeconds="86.46" traveltime="44.80" density="2.95" occupancy="0.88" waitingTime="0.00" speed="10.91" departed="0" arrived="0" entered="6" left="0" laneChangedFrom="0" laneChangedTo="0"/>
        <edge id="3si" sampledSeconds="639.50" traveltime="52.23" density="44.94" occupancy="4.49" waitingTime="278.00" speed="4.54" departed="0" arrived="0" entered="12" left="17" laneChangedFrom="0" laneChangedTo="0"/>
        <edge id="4fi" sampledSeconds="135.05" traveltime="22.81" density="9.06" occupancy="2.72" waitingTime="0.00" speed="10.89" departed="0" arrived="0" entered="4" left="7" laneChangedFrom="0" laneChangedTo="0"/>
        <edge id="4o" sampledSeconds="293.91" traveltime="49.23" density="10.02" occupancy="3.01" waitingTime="0.00" speed="9.93" departed="0" arrived="0" entered="14" left="4" laneChangedFrom="0" laneChangedTo="0"/>
        <edge id="4si" sampledSeconds="262.02" traveltime="32.75" density="18.41" occupancy="1.84" waitingTime="87.00" speed="7.24" departed="0" arrived="0" entered="7" left="8" laneChangedFrom="0" laneChangedTo="0"/>
    </interval>
    <interval begin="300.00" end="360.00" id="dump_60">
        <edge id="1fi" sampledSeconds="338.82" traveltime="28.23" density="22.72" occupancy="6.82" waitingTime="0.00" speed="8.80" departed="8" arrived="0" entered="0" left="15" laneChangedFrom="0" laneChangedTo="0"/>
        <edge id="1o" sampledSeconds="241.72" traveltime="47.19" density="8.24" occupancy="2.47" waitingTime="0.00" speed="10.35" departed="0" arrived="0" entered="9" left="0" laneChangedFrom="0" laneChangedTo="0"/>
        <edge id="1si" sampledSeconds="789.01" traveltime="54.30" density="55.45" occupancy="5.55" waitingTime="353.00" speed="4.37" departed="0" arrived="0" entered="15" left="13" laneChangedFrom="0" laneChangedTo="0"/>
        <edge id="2fi" sampledSeconds="395.37" traveltime="28.27" density="26.52" occupancy="7.96" waitingTime="0.00" speed="8.79" departed="5" arrived="1" entered="10" left="9" laneChangedFrom="0" laneChangedTo="0"/>
        <edge id="2o" sampledSeconds="707.40" traveltime="46.68" density="24.13" occupancy="7.24" waitingTime="0.00" speed="10.47" departed="0" arrived="0" entered="13" left="11" laneChangedFrom="0" laneChangedTo="0"/>
        <edge id="2si" sampledSeconds="476.56" traveltime="61.20" density="33.49" occupancy="3.35" waitingTime="208.00" speed="3.87" departed="0" arrived="0" entered="9" left="16" laneChangedFrom="0" laneChangedTo="0"/>
        <edge id="3fi" sampledSeconds="451.62" traveltime="29.66" density="30.29" occupancy="9.09" waitingTime="0.00" speed="8.38" departed="10" arrived="0" entered="6" left="11" laneChangedFrom="0" laneChangedTo="0"/>
        <edge id="3o" sampledSeconds="194.90" traveltime="47.45" density="6.65" occupancy="1.99" waitingTime="0.00" speed="10.30" departed="0" arrived="0" entered="0" left="6" laneChangedFrom="0" laneChangedTo="0"/>
        <edge id="3si" sampledSeconds="541.02" traveltime="48.31" density="38.02" occupancy="3.80" waitingTime="299.00" speed="4.91" departed="0" arrived="0" entered="11" left="1" laneChangedFrom="0" laneChangedTo="0"/>
        <edge id="4fi" sampledSeconds="308.79" traveltime="22.81" density="20.71" occupancy="6.21" waitingTime="0.00" speed="10.89" departed="0" arrived="0" entered="14" left="10" laneChangedFrom="0" laneChangedTo="0"/>
        <edge id="4o" sampledSeconds="619.93" traveltime="46.59" density="21.14" occupancy="6.34" waitingTime="0.00" speed="10.49" departed="0" arrived="0" entered="11" left="14" laneChangedFrom="0" laneChangedTo="0"/>
        <edge id="4si" sampledSeconds="159.56" traveltime="25.69" density="11.21" occupancy="1.12" waitingTime="21.00" speed="9.23" departed="0" arrived="0" entered="10" left="1" laneChangedFrom="0" laneChangedTo="0"/>
    </interval>
    <interval begin="360.00" end="420.00" id="dump_60">
        <edge id="1fi" sampledSeconds="381.61" traveltime="26.40" density="25.59" occupancy="7.68" waitingTime="0.00" speed="9.41" departed="6" arrived="0" entered="9" left="13" laneChangedFrom="0" laneChangedTo="0"/>
        <edge id="1o" sampledSeconds="183.12" traveltime="45.45" density="6.25" occupancy="1.87" waitingTime="0.00" speed="10.75" departed="0" arrived="0" entered="2" left="9" laneChangedFrom="0" laneChangedTo="0"/>
        <edge id="1si" sampledSeconds="962.10" traveltime="84.89" density="67.62" occupancy="6.76" waitingTime="583.00" speed="2.79" departed="0" arrived="0" entered="13" left="5" laneChangedFrom="0" laneChangedTo="0"/>
        <edge id="2fi" sampledSeconds="550.43" traveltime="28.41" density="36.92" occupancy="11.08" waitingTime="0.00" speed="8.75" departed="7" arrived="0" entered="13" left="13" laneChangedFrom="0" laneChangedTo="0"/>
        <edge id="2o" sampledSeconds="635.33" traveltime="51.24" density="21.67" occupancy="6.50" waitingTime="0.00" speed="9.54" departed="0" arrived="0" entered="14" left="12" laneChangedFrom="0" laneChangedTo="0"/>
        <edge id="2si" sampledSeconds="829.80" traveltime="51.95" density="58.32" occupancy="5.83" waitingTime="363.00" speed="4.56" departed="0" arrived="0" entered="13" left="12" laneChangedFrom="0" laneChangedTo="0"/>
        <edge id="3fi" sampledSeconds="444.01" traveltime="31.69" density="29.78" occupancy="8.93" waitingTime="0.00" speed="7.84" departed="13" arrived="0" entered="1" left="12" laneChangedFrom="0" laneChangedTo="0"/>
        <edge id="3o" sampledSeconds="375.31" traveltime="45.57" density="12.80" occupancy="3.84" waitingTime="0.00" speed="10.72" departed="0" arrived="0" entered="10" left="2" laneChangedFrom="0" laneChangedTo="0"/>
        <edge id="3si" sampledSeconds="463.11" traveltime="41.59" density="32.55" occupancy="3.25" waitingTime="125.00" speed="5.70" departed="0" arrived="0" entered="12" left="14" laneChangedFrom="0" laneChangedTo="0"/>
        <edge id="4fi" sampledSeconds="249.31" traveltime="22.77" density="16.72" occupancy="5.02" waitingTime="0.00" speed="10.91" departed="0" arrived="0" entered="13" left="11" laneChangedFrom="0" laneChangedTo="0"/>
        <edge id="4o" sampledSeconds="610.64" traveltime="46.61" density="20.83" occupancy="6.25" waitingTime="0.00" speed="10.48" departed="0" arrived="0" entered="11" left="14" laneChangedFrom="0" laneChangedTo="0"/>
        <edge id="4si" sampledSeconds="424.37" traveltime="29.66" density="29.82" occupancy="2.98" waitingTime="75.00" speed="8.00" departed="0" arrived="0" entered="11" left="14" laneChangedFrom="0" laneChangedTo="0"/>
    </interval>
    <interval begin="420.00" end="480.00" id="dump_60">
        <edge id="1fi" sampledSeconds="253.35" traveltime="27.09" density="16.99" occupancy="5.10" waitingTime="0.00" speed="9.17" departed="5" arrived="0" entered="7" left="8" laneChangedFrom="0" laneChangedTo="0"/>
        <edge id="1o" sampledSeconds="432.51" traveltime="47.56" density="14.75" occupancy="4.43" waitingTime="0.00" speed="10.28" departed="0" arrived="0" entered="12" left="7" laneChangedFrom="0" laneChangedTo="0"/>
        <edge id="1si" sampledSeconds="983.93" traveltime="115.99" density="69.15" occupancy="6.91" waitingTime="497.00" speed="2.04" departed="0" arrived="0" entered="8" left="10" laneChangedFrom="0" laneChangedTo="0"/>
        <edge id="2fi" sampledSeconds="550.26" traveltime="27.79" density="36.91" occupancy="11.07" waitingTime="0.00" speed="8.94" departed="3" arrived="0" entered="18" left="18" laneChangedFrom="0" laneChangedTo="0"/>
        <edge id="2o" sampledSeconds="725.16" traveltime="49.05" density="24.73" occupancy="7.42" waitingTime="0.00" speed="9.96" departed="0" arrived="0" entered="16" left="18" laneChangedFrom="0" laneChangedTo="0"/>
        <edge id="2si" sampledSeconds="506.41" traveltime="36.05" density="35.59" occupancy="3.56" waitingTime="176.00" speed="6.58" departed="0" arrived="0" entered="18" left="7" laneChangedFrom="0" laneChangedTo="0"/>
        <edge id="3fi" sampledSeconds="514.44" traveltime="28.75" density="34.50" occupancy="10.35" waitingTime="0.00" speed="8.64" departed="9" arrived="2" entered="9" left="9" laneChangedFrom="0" laneChangedTo="0"/>
        <edge id="3o" sampledSeconds="290.74" traveltime="51.38" density="9.92" occupancy="2.97" waitingTime="0.00" speed="9.51" departed="0" arrived="0" entered="9" left="8" laneChangedFrom="0" laneChangedTo="0"/>
        <edge id="3si" sampledSeconds="739.93" traveltime="77.33" density="52.00" occupancy="5.20" waitingTime="383.00" speed="3.07" departed="0" arrived="0" entered="9" left="18" laneChangedFrom="0" laneChangedTo="0"/>
        <edge id="4fi" sampledSeconds="284.18" traveltime="22.77" density="19.06" occupancy="5.72" waitingTime="0.00" speed="10.92" departed="0" arrived="0" entered="14" left="11" laneChangedFrom="0" laneChangedTo="0"/>
        <edge id="4o" sampledSeconds="746.26" traveltime="47.50" density="25.45" occupancy="7.64" waitingTime="0.00" speed="10.29" departed="0" arrived="0" entered="20" left="13" laneChangedFrom="0" laneChangedTo="0"/>
        <edge id="4si" sampledSeconds="610.86" traveltime="51.60" density="42.93" occupancy="4.29" waitingTime="290.00" speed="4.60" departed="0" arrived="0" entered="11" left="16" laneChangedFrom="0" laneChangedTo="0"/>
    </interval>
    <interval begin="480.00" end="540.00" id="dump_60">
        <edge id="1fi" sampledSeconds="455.16" traveltime="28.50" density="30.53" occupancy="9.16" waitingTime="0.00" speed="8.72" departed="7" arrived="0" entered="7" left="16" laneChangedFrom="0" laneChangedTo="0"/>
        <edge id="1o" sampledSeconds="452.25" traveltime="47.65" density="15.42" occupancy="4.63" waitingTime="0.00" speed="10.25" departed="0" arrived="0" entered="8" left="7" laneChangedFrom="0" laneChangedTo="0"/>
        <edge id="1si" sampledSeconds="1247.31" traveltime="99.59" density="87.66" occupancy="8.77" waitingTime="701.00" speed="2.38" departed="0" arrived="0" entered="16" left="12" laneChangedFrom="0" laneChangedTo="0"/>
        <edge id="2fi" sampledSeconds="572.37" traveltime="27.24" density="38.39" occupancy="11.52" waitingTime="0.00" speed="9.12" departed="7" arrived="0" entered="12" left="11" laneChangedFrom="0" laneChangedTo="0"/>
        <edge id="2o" sampledSeconds="697.16" traveltime="46.83" density="23.78" occupancy="7.13" waitingTime="0.00" speed="10.43" departed="0" arrived="0" entered="11" left="13" laneChangedFrom="0" laneChangedTo="0"/>
        <edge id="2si" sampledSeconds="687.16" traveltime="59.10" density="48.29" occupancy="4.83" waitingTime="286.00" speed="4.01" departed="0" arrived="0" entered="11" left="20" laneChangedFrom="0" laneChangedTo="0"/>
        <edge id="3fi" sampledSeconds="503.92" traveltime="29.28" density="33.80" occupancy="10.14" waitingTime="0.00" speed="8.49" departed="8" arrived="0" entered="9" left="13" laneChangedFrom="0" laneChangedTo="0"/>
        <edge id="3o" sampledSeconds="337.86" traveltime="50.86" density="11.52" occupancy="3.46" waitingTime="0.00" speed="9.61" departed="0" arrived="0" entered="5" left="9" laneChangedFrom="0" laneChangedTo="0"/>
        <edge id="3si" sampledSeconds="581.06" traveltime="43.30" density="40.84" occupancy="4.08" waitingTime="297.00" speed="5.48" departed="0" arrived="0" entered="13" left="0" laneChangedFrom="0" laneChangedTo="0"/>
        <edge id="4fi" sampledSeconds="434.85" traveltime="22.78" density="29.16" occupancy="8.75" waitingTime="0.00" speed="10.91" departed="0" arrived="0" entered="15" left="20" laneChangedFrom="0" laneChangedTo="0"/>
        <edge id="4o" sampledSeconds="640.96" traveltime="46.95" density="21.86" occupancy="6.56" waitingTime="0.00" speed="10.41" departed="0" arrived="0" entered="12" left="15" laneChangedFrom="0" laneChangedTo="0"/>
        <edge id="4si" sampledSeconds="624.37" traveltime="40.63" density="43.88" occupancy="4.39" waitingTime="258.00" speed="5.84" departed="0" arrived="0" entered="20" left="2" laneChangedFrom="0" laneChangedTo="0"/>
    </interval>
    <interval begin="540.00" end="600.00" id="dump_60">
        <edge id="1fi" sampledSeconds="404.89" traveltime="26.69" density="27.16" occupancy="8.15" waitingTime="0.00" speed="9.31" departed="6" arrived="0" entered="10" left="16" laneChangedFrom="0" laneChangedTo="0"/>
        <edge id="1o" sampledSeconds="622.64" traveltime="47.54" density="21.24" occupancy="6.37" waitingTime="0.00" speed="10.28" departed="0" arrived="0" entered="15" left="10" laneChangedFrom="0" laneChangedTo="0"/>
        <edge id="1si" sampledSeconds="1716.87" traveltime="101.15" density="120.66" occupancy="12.07" waitingTime="1059.00" speed="2.34" departed="0" arrived="0" entered="16" left="11" laneChangedFrom="0" laneChangedTo="0"/>
        <edge id="2fi" sampledSeconds="533.97" traveltime="28.67" density="35.81" occupancy="10.74" waitingTime="0.00" speed="8.67" departed="8" arrived="0" entered="11" left="13" laneChangedFrom="0" laneChangedTo="0"/>
        <edge id="2o" sampledSeconds="582.64" traveltime="49.45" density="19.87" occupancy="5.96" waitingTime="0.00" speed="9.88" departed="0" arrived="0" entered="15" left="10" laneChangedFrom="0" laneChangedTo="0"/>
        <edge id="2si" sampledSeconds="1007.24" traveltime="61.09" density="70.79" occupancy="7.08" waitingTime="491.00" speed="3.88" departed="0" arrived="0" entered="13" left="12" laneChangedFrom="0" laneChangedTo="0"/>
        <edge id="3fi" sampledSeconds="476.20" traveltime="30.07" density="31.94" occupancy="9.58" waitingTime="0.00" speed="8.26" departed="10" arrived="0" entered="6" left="11" laneChangedFrom="0" laneChangedTo="0"/>
        <edge id="3o" sampledSeconds="557.10" traveltime="46.48" density="19.00" occupancy="5.70" waitingTime="0.00" speed="10.51" departed="0" arrived="0" entered="13" left="7" laneChangedFrom="0" laneChangedTo="0"/>
        <edge id="3si" sampledSeconds="472.09" traveltime="43.65" density="33.18" occupancy="3.32" waitingTime="136.00" speed="5.43" departed="0" arrived="0" entered="11" left="16" laneChangedFrom="0" laneChangedTo="0"/>
        <edge id="4fi" sampledSeconds="274.42" traveltime="22.78" density="18.40" occupancy="5.52" waitingTime="0.00" speed="10.91" departed="0" arrived="0" entered="14" left="12" laneChangedFrom="0" laneChangedTo="0"/>
        <edge id="4o" sampledSeconds="642.02" traveltime="46.27" density="21.90" occupancy="6.57" waitingTime="0.00" speed="10.56" departed="0" arrived="0" entered="11" left="14" laneChangedFrom="0" laneChangedTo="0"/>
        <edge id="4si" sampledSeconds="577.64" traveltime="37.69" density="40.60" occupancy="4.06" waitingTime="131.00" speed="6.29" departed="0" arrived="0" entered="11" left="24" laneChangedFrom="0" laneChangedTo="0"/>
    </interval>
    <interval begin="600.00" end="660.00" id="dump_60">
        <edge id="1fi" sampledSeconds="535.22" traveltime="27.53" density="35.90" occupancy="10.77" waitingTime="0.00" speed="9.03" departed="4" arrived="0" entered="17" left="15" laneChangedFrom="0" laneChangedTo="0"/>
        <edge id="1o" sampledSeconds="673.49" traveltime="49.61" density="22.97" occupancy="6.89" waitingTime="0.00" speed="9.85" departed="0" arrived="0" entered="14" left="18" laneChangedFrom="0" laneChangedTo="0"/>
        <edge id="1si" sampledSeconds="1649.35" traveltime="111.54" density="115.91" occupancy="11.59" waitingTime="795.00" speed="2.13" departed="0" arrived="0" entered="15" left="9" laneChangedFrom="0" laneChangedTo="0"/>
        <edge id="2fi" sampledSeconds="568.14" traveltime="27.36" density="38.10" occupancy="11.43" waitingTime="0.00" speed="9.08" departed="4" arrived="0" entered="18" left="20" laneChangedFrom="0" laneChangedTo="0"/>
        <edge id="2o" sampledSeconds="653.23" traveltime="48.77" density="22.28" occupancy="6.68" waitingTime="0.00" speed="10.02" departed="0" arrived="0" entered="12" left="18" laneChangedFrom="0" laneChangedTo="0"/>
        <edge id="2si" sampledSeconds="635.45" traveltime="40.23" density="44.66" occupancy="4.47" waitingTime="242.00" speed="5.90" departed="0" arrived="0" entered="20" left="10" laneChangedFrom="0" laneChangedTo="0"/>
        <edge id="3fi" sampledSeconds="534.92" traveltime="28.11" density="35.88" occupancy="10.76" waitingTime="0.00" speed="8.84" departed="6" arrived="0" entered="15" left="10" laneChangedFrom="0" laneChangedTo="0"/>
        <edge id="3o" sampledSeconds="667.87" traveltime="50.54" density="22.78" occupancy="6.83" waitingTime="0.00" speed="9.67" departed="0" arrived="0" entered="14" left="14" laneChangedFrom="0" laneChangedTo="0"/>
        <edge id="3si" sampledSeconds="799.92" traveltime="72.92" density="56.22" occupancy="5.62" waitingTime="404.00" speed="3.25" departed="0" arrived="0" entered="10" left="17" laneChangedFrom="0" laneChangedTo="0"/>
        <edge id="4fi" sampledSeconds="276.31" traveltime="22.78" density="18.53" occupancy="5.56" waitingTime="0.00" speed="10.91" departed="0" arrived="0" entered="14" left="11" laneChangedFrom="0" laneChangedTo="0"/>
        <edge id="4o" sampledSeconds="686.05" traveltime="47.33" density="23.40" occupancy="7.02" waitingTime="0.00" speed="10.32" departed="0" arrived="0" entered="17" left="14" laneChangedFrom="0" laneChangedTo="0"/>
        <edge id="4si" sampledSeconds="672.37" traveltime="52.57" density="47.25" occupancy="4.73" waitingTime="318.00" speed="4.51" departed="0" arrived="0" entered="12" left="16" laneChangedFrom="0" laneChangedTo="0"/>
    </interval>
    <interval begin="660.00" end="720.00" id="dump_60">
        <edge id="1fi" sampledSeconds="565.10" traveltime="27.73" density="37.90" occupancy="11.37" waitingTime="0.00" speed="8.96" departed="7" arrived="0" entered="13" left="21" laneChangedFrom="0" laneChangedTo="0"/>
        <edge id="1o" sampledSeconds="726.23" traveltime="48.25" density="24.77" occupancy="7.43" waitingTime="0.00" speed="10.13" departed="0" arrived="0" entered="13" left="12" laneChangedFrom="0" laneChangedTo="0"/>
        <edge id="1si" sampledSeconds="1989.71" traveltime="127.39" density="139.83" occupancy="13.98" waitingTime="1191.00" speed="1.86" departed="0" arrived="0" entered="20" left="23" laneChangedFrom="0" laneChangedTo="0"/>
        <edge id="2fi" sampledSeconds="532.07" traveltime="27.77" density="35.69" occupancy="10.71" waitingTime="0.00" speed="8.95" departed="7" arrived="0" entered="10" left="11" laneChangedFrom="0" laneChangedTo="0"/>
        <edge id="2o" sampledSeconds="663.65" traveltime="46.93" density="22.64" occupancy="6.79" waitingTime="0.00" speed="10.41" departed="0" arrived="0" entered="14" left="11" laneChangedFrom="0" laneChangedTo="0"/>
        <edge id="2si" sampledSeconds="852.49" traveltime="70.92" density="59.91" occupancy="5.99" waitingTime="395.00" speed="3.34" departed="0" arrived="0" entered="11" left="18" laneChangedFrom="0" laneChangedTo="0"/>
        <edge id="3fi" sampledSeconds="565.11" traveltime="27.45" density="37.90" occupancy="11.37" waitingTime="0.00" speed="9.05" departed="7" arrived="1" entered="11" left="10" laneChangedFrom="0" laneChangedTo="0"/>
        <edge id="3o" sampledSeconds="530.44" traveltime="48.12" density="18.09" occupancy="5.43" waitingTime="0.00" speed="10.15" departed="0" arrived="0" entered="11" left="11" laneChangedFrom="0" laneChangedTo="0"/>