<?xml version="1.0"?>

<!-- generated on 07/28/09 14:59:48 by SUMO sumo Version dev-SVN-r7551
<configuration>

    <input
        net-file="net.net.xml"
        route-files="input_routes.rou.xml"
        additional-files="input_additional.add.xml"
    />

    <time
        begin="0"
        end="1000"
    />

    <report
        no-duration-log="true"
        no-step-log="true"
    />

</configuration>
-->

<netstats>
   <interval begin="0" end="900" id="dump_900">
      <edge id=":0_0" traveltime="2.64" sampledSeconds="105.75" density="10.80" occupancy="5.40" noStops="0" speed="4.12" entered="40" emitted="0" left="40"/>
      <edge id=":0_1" traveltime="1.96" sampledSeconds="102.14" density="4.94" occupancy="2.47" noStops="0" speed="11.70" entered="52" emitted="0" left="52"/>
      <edge id=":0_2" traveltime="14.61" sampledSeconds="613.46" density="52.76" occupancy="26.38" noStops="325" speed="0.88" entered="42" emitted="0" left="42"/>
      <edge id=":0_16" traveltime="2.55" sampledSeconds="107.06" density="14.78" occupancy="7.39" noStops="0" speed="3.16" entered="42" emitted="0" left="42"/>
      <edge id=":0_3" traveltime="0.01" sampledSeconds="0.00" density="0.00" occupancy="0.00" noStops="0" speed="12.50" entered="0" emitted="0" left="0"/>
      <edge id=":0_17" traveltime="0.38" sampledSeconds="0.00" density="0.00" occupancy="0.00" noStops="0" speed="12.50" entered="0" emitted="0" left="0"/>
      <edge id=":0_4" traveltime="2.69" sampledSeconds="140.11" density="14.31" occupancy="7.15" noStops="0" speed="4.04" entered="52" emitted="0" left="52"/>
      <edge id=":0_5" traveltime="4.43" sampledSeconds="323.44" density="15.64" occupancy="7.82" noStops="0" speed="5.19" entered="73" emitted="0" left="73"/>
      <edge id=":0_6" traveltime="14.69" sampledSeconds="381.84" density="57.57" occupancy="28.78" noStops="277" speed="0.50" entered="26" emitted="0" left="26"/>
      <edge id=":0_18" traveltime="3.99" sampledSeconds="101.07" density="8.26" occupancy="4.13" noStops="0" speed="3.41" entered="26" emitted="0" left="25"/>
      <edge id=":0_7" traveltime="0.01" sampledSeconds="0.00" density="0.00" occupancy="0.00" noStops="0" speed="12.50" entered="0" emitted="0" left="0"/>
      <edge id=":0_19" traveltime="0.38" sampledSeconds="0.00" density="0.00" occupancy="0.00" noStops="0" speed="12.50" entered="0" emitted="0" left="0"/>
      <edge id=":0_8" traveltime="2.68" sampledSeconds="155.72" density="15.90" occupancy="7.95" noStops="0" speed="4.05" entered="58" emitted="0" left="58"/>
      <edge id=":0_9" traveltime="4.73" sampledSeconds="269.60" density="13.04" occupancy="6.52" noStops="0" speed="4.86" entered="57" emitted="0" left="57"/>
      <edge id=":0_10" traveltime="18.19" sampledSeconds="345.64" density="29.73" occupancy="14.86" noStops="204" speed="0.71" entered="19" emitted="0" left="19"/>
      <edge id=":0_20" traveltime="2.78" sampledSeconds="52.80" density="7.29" occupancy="3.64" noStops="0" speed="2.90" entered="19" emitted="0" left="19"/>
      <edge id=":0_11" traveltime="0.01" sampledSeconds="0.00" density="0.00" occupancy="0.00" noStops="0" speed="12.50" entered="0" emitted="0" left="0"/>
      <edge id=":0_21" traveltime="0.38" sampledSeconds="0.00" density="0.00" occupancy="0.00" noStops="0" speed="12.50" entered="0" emitted="0" left="0"/>
      <edge id=":0_12" traveltime="2.62" sampledSeconds="83.97" density="8.57" occupancy="4.29" noStops="0" speed="4.15" entered="32" emitted="0" left="32"/>
      <edge id=":0_13" traveltime="1.96" sampledSeconds="121.22" density="5.86" occupancy="2.93" noStops="0" speed="11.75" entered="62" emitted="0" left="62"/>
      <edge id=":0_14" traveltime="9.20" sampledSeconds="496.62" density="74.87" occupancy="37.44" noStops="306" speed="0.80" entered="54" emitted="0" left="54"/>
      <edge id=":0_22" traveltime="3.53" sampledSeconds="189.64" density="15.50" occupancy="7.75" noStops="0" speed="3.85" entered="54" emitted="0" left="53"/>
      <edge id=":0_15" traveltime="0.01" sampledSeconds="0.00" density="0.00" occupancy="0.00" noStops="0" speed="12.50" entered="0" emitted="0" left="0"/>
      <edge id=":0_23" traveltime="0.38" sampledSeconds="0.00" density="0.00" occupancy="0.00" noStops="0" speed="12.50" entered="0" emitted="0" left="0"/>
      <edge id=":1_0" traveltime="0.82" sampledSeconds="99.37" density="22.91" occupancy="11.45" noStops="0" speed="5.89" entered="122" emitted="0" left="121"/>
      <edge id=":2_0" traveltime="1.02" sampledSeconds="156.39" density="36.05" occupancy="18.03" noStops="0" speed="4.72" entered="153" emitted="0" left="153"/>
      <edge id=":3_0" traveltime="1.02" sampledSeconds="98.90" density="22.80" occupancy="11.40" noStops="0" speed="4.73" entered="97" emitted="0" left="97"/>
      <edge id=":4_0" traveltime="0.53" sampledSeconds="79.35" density="18.29" occupancy="9.15" noStops="0" speed="9.17" entered="151" emitted="0" left="151"/>
      <edge id=":m1_0" traveltime="0.82" sampledSeconds="29.56" density="4.53" occupancy="2.27" noStops="0" speed="8.83" entered="36" emitted="0" left="36"/>
      <edge id=":m1_1" traveltime="0.48" sampledSeconds="30.41" density="7.58" occupancy="3.79" noStops="0" speed="9.39" entered="64" emitted="0" left="64"/>
      <edge id=":m1_2" traveltime="0.27" sampledSeconds="20.76" density="7.69" occupancy="3.84" noStops="0" speed="10.98" entered="76" emitted="0" left="76"/>
      <edge id=":m2_0" traveltime="0.84" sampledSeconds="46.39" density="7.11" occupancy="3.55" noStops="0" speed="8.63" entered="56" emitted="0" left="55"/>
      <edge id=":m2_1" traveltime="0.40" sampledSeconds="31.04" density="7.73" occupancy="3.87" noStops="0" speed="11.06" entered="77" emitted="0" left="77"/>
      <edge id=":m2_2" traveltime="0.34" sampledSeconds="12.14" density="4.50" occupancy="2.25" noStops="0" speed="8.90" entered="36" emitted="0" left="36"/>
      <edge id=":m3_0" traveltime="0.65" sampledSeconds="41.91" density="6.42" occupancy="3.21" noStops="0" speed="11.07" entered="64" emitted="0" left="64"/>
      <edge id=":m3_1" traveltime="0.40" sampledSeconds="25.83" density="6.44" occupancy="3.22" noStops="0" speed="11.05" entered="64" emitted="0" left="64"/>
      <edge id=":m3_2" traveltime="0.31" sampledSeconds="6.84" density="2.53" occupancy="1.27" noStops="0" speed="9.65" entered="22" emitted="0" left="22"/>
      <edge id=":m4_0" traveltime="0.71" sampledSeconds="33.27" density="5.10" occupancy="2.55" noStops="0" speed="10.24" entered="47" emitted="0" left="47"/>
      <edge id=":m4_1" traveltime="0.41" sampledSeconds="23.05" density="5.74" occupancy="2.87" noStops="0" speed="10.83" entered="56" emitted="0" left="56"/>
      <edge id=":m4_2" traveltime="0.27" sampledSeconds="12.86" density="4.76" occupancy="2.38" noStops="0" speed="10.97" entered="47" emitted="0" left="47"/>
      <edge id="1fi" traveltime="28.79" sampledSeconds="5194.41" density="23.23" occupancy="11.61" noStops="80" speed="8.63" entered="121" emitted="79" left="176"/>
      <edge id="1o" traveltime="48.40" sampledSeconds="6208.95" density="14.12" occupancy="7.06" noStops="0" speed="10.10" entered="132" emitted="0" left="122"/>
      <edge id="1si" traveltime="72.72" sampledSeconds="13020.07" density="61.00" occupancy="10.17" noStops="6923" speed="6.18" entered="176" emitted="0" left="148"/>
      <edge id="2fi" traveltime="29.89" sampledSeconds="5173.57" density="23.13" occupancy="11.57" noStops="81" speed="8.31" entered="153" emitted="79" left="169"/>
      <edge id="2o" traveltime="48.41" sampledSeconds="7615.17" density="17.32" occupancy="8.66" noStops="0" speed="10.09" entered="162" emitted="0" left="153"/>
      <edge id="2si" traveltime="58.55" sampledSeconds="9030.23" density="42.31" occupancy="7.05" noStops="4305" speed="4.20" entered="168" emitted="0" left="151"/>
      <edge id="3fi" traveltime="32.42" sampledSeconds="4957.49" density="22.17" occupancy="11.08" noStops="138" speed="7.66" entered="97" emitted="134" left="150"/>
      <edge id="3o" traveltime="47.90" sampledSeconds="4918.76" density="11.18" occupancy="5.59" noStops="0" speed="10.20" entered="109" emitted="0" left="97"/>
      <edge id="3si" traveltime="42.74" sampledSeconds="6682.89" density="31.31" occupancy="5.22" noStops="2940" speed="5.70" entered="150" emitted="0" left="134"/>
      <edge id="4fi" traveltime="23.17" sampledSeconds="3496.75" density="15.63" occupancy="7.82" noStops="0" speed="10.73" entered="151" emitted="0" left="150"/>
      <edge id="4o" traveltime="47.73" sampledSeconds="7407.13" density="16.84" occupancy="8.42" noStops="0" speed="10.24" entered="162" emitted="0" left="151"/>
      <edge id="4si" traveltime="39.76" sampledSeconds="5674.41" density="26.59" occupancy="4.43" noStops="1990" speed="7.60" entered="150" emitted="0" left="134"/>
   </interval>
   <interval begin="900" end="1000" id="dump_900">
      <edge id=":0_0" traveltime="3.52" sampledSeconds="34.27" density="31.50" occupancy="15.75" noStops="0" speed="3.09" entered="10" emitted="0" left="9"/>
      <edge id=":0_1" traveltime="1.93" sampledSeconds="9.65" density="4.20" occupancy="2.10" noStops="0" speed="11.90" entered="5" emitted="0" left="5"/>
      <edge id=":0_2" traveltime="17.60" sampledSeconds="119.88" density="92.78" occupancy="46.39" noStops="70" speed="0.73" entered="8" emitted="0" left="5"/>
      <edge id=":0_16" traveltime="2.50" sampledSeconds="12.48" density="15.50" occupancy="7.75" noStops="0" speed="3.23" entered="5" emitted="0" left="5"/>
      <edge id=":0_3" traveltime="0.01" sampledSeconds="0.00" density="0.00" occupancy="0.00" noStops="0" speed="12.50" entered="0" emitted="0" left="0"/>
      <edge id=":0_17" traveltime="0.38" sampledSeconds="0.00" density="0.00" occupancy="0.00" noStops="0" speed="12.50" entered="0" emitted="0" left="0"/>
      <edge id=":0_4" traveltime="2.99" sampledSeconds="17.96" density="16.51" occupancy="8.25" noStops="0" speed="3.63" entered="6" emitted="0" left="6"/>
      <edge id=":0_5" traveltime="4.65" sampledSeconds="41.84" density="18.21" occupancy="9.10" noStops="0" speed="4.94" entered="9" emitted="0" left="9"/>
      <edge id=":0_6" traveltime="23.52" sampledSeconds="70.55" density="95.73" occupancy="47.87" noStops="53" speed="0.31" entered="3" emitted="0" left="3"/>
      <edge id=":0_18" traveltime="4.21" sampledSeconds="15.35" density="11.30" occupancy="5.65" noStops="0" speed="3.23" entered="3" emitted="0" left="4"/>
      <edge id=":0_7" traveltime="0.01" sampledSeconds="0.00" density="0.00" occupancy="0.00" noStops="0" speed="12.50" entered="0" emitted="0" left="0"/>
      <edge id=":0_19" traveltime="0.38" sampledSeconds="0.00" density="0.00" occupancy="0.00" noStops="0" speed="12.50" entered="0" emitted="0" left="0"/>
      <edge id=":0_8" traveltime="3.04" sampledSeconds="29.45" density="27.07" occupancy="13.53" noStops="0" speed="3.58" entered="10" emitted="0" left="9"/>
      <edge id=":0_9" traveltime="5.19" sampledSeconds="49.73" density="21.64" occupancy="10.82" noStops="0" speed="4.43" entered="11" emitted="0" left="9"/>
      <edge id=":0_10" traveltime="14.94" sampledSeconds="71.90" density="55.65" occupancy="27.82" noStops="39" speed="0.86" entered="6" emitted="0" left="3"/>
      <edge id=":0_20" traveltime="3.01" sampledSeconds="9.02" density="11.20" occupancy="5.60" noStops="0" speed="2.68" entered="3" emitted="0" left="3"/>
      <edge id=":0_11" traveltime="0.01" sampledSeconds="0.00" density="0.00" occupancy="0.00" noStops="0" speed="12.50" entered="0" emitted="0" left="0"/>
      <edge id=":0_21" traveltime="0.38" sampledSeconds="0.00" density="0.00" occupancy="0.00" noStops="0" speed="12.50" entered="0" emitted="0" left="0"/>
      <edge id=":0_12" traveltime="2.77" sampledSeconds="22.17" density="20.38" occupancy="10.19" noStops="0" speed="3.93" entered="8" emitted="0" left="8"/>
      <edge id=":0_13" traveltime="2.82" sampledSeconds="31.04" density="13.51" occupancy="6.75" noStops="0" speed="8.14" entered="11" emitted="0" left="11"/>
      <edge id=":0_14" traveltime="10.85" sampledSeconds="65.11" density="88.35" occupancy="44.18" noStops="42" speed="0.68" entered="6" emitted="0" left="6"/>
      <edge id=":0_22" traveltime="3.47" sampledSeconds="21.60" density="15.89" occupancy="7.95" noStops="0" speed="3.92" entered="6" emitted="0" left="7"/>
      <edge id=":0_15" traveltime="0.01" sampledSeconds="0.00" density="0.00" occupancy="0.00" noStops="0" speed="12.50" entered="0" emitted="0" left="0"/>
      <edge id=":0_23" traveltime="0.38" sampledSeconds="0.00" density="0.00" occupancy="0.00" noStops="0" speed="12.50" entered="0" emitted="0" left="0"/>
      <edge id=":1_0" traveltime="1.03" sampledSeconds="21.09" density="43.76" occupancy="21.88" noStops="0" speed="4.69" entered="20" emitted="0" left="21"/>
      <edge id=":2_0" traveltime="0.94" sampledSeconds="19.78" density="41.03" occupancy="20.52" noStops="0" speed="5.12" entered="21" emitted="0" left="21"/>
      <edge id=":3_0" traveltime="0.95" sampledSeconds="17.15" density="35.58" occupancy="17.79" noStops="0" speed="5.06" entered="18" emitted="0" left="18"/>
      <edge id=":4_0" traveltime="0.50" sampledSeconds="10.07" density="20.90" occupancy="10.45" noStops="0" speed="9.57" entered="20" emitted="0" left="20"/>
      <edge id=":m1_0" traveltime="0.86" sampledSeconds="7.73" density="10.67" occupancy="5.33" noStops="0" speed="8.44" entered="9" emitted="0" left="9"/>
      <edge id=":m1_1" traveltime="0.54" sampledSeconds="4.84" density="10.86" occupancy="5.43" noStops="0" speed="8.29" entered="9" emitted="0" left="9"/>
      <edge id=":m1_2" traveltime="0.27" sampledSeconds="2.98" density="9.92" occupancy="4.96" noStops="0" speed="11.09" entered="11" emitted="0" left="11"/>
      <edge id=":m2_0" traveltime="0.80" sampledSeconds="7.90" density="10.90" occupancy="5.45" noStops="0" speed="9.01" entered="9" emitted="0" left="10"/>
      <edge id=":m2_1" traveltime="0.40" sampledSeconds="3.63" density="8.13" occupancy="4.07" noStops="0" speed="11.06" entered="9" emitted="0" left="9"/>
      <edge id=":m2_2" traveltime="0.34" sampledSeconds="2.06" density="6.86" occupancy="3.43" noStops="0" speed="8.75" entered="6" emitted="0" left="6"/>
      <edge id=":m3_0" traveltime="0.66" sampledSeconds="4.60" density="6.35" occupancy="3.18" noStops="0" speed="11.02" entered="7" emitted="0" left="7"/>
      <edge id=":m3_1" traveltime="0.41" sampledSeconds="2.84" density="6.37" occupancy="3.18" noStops="0" speed="10.99" entered="7" emitted="0" left="7"/>
      <edge id=":m3_2" traveltime="0.30" sampledSeconds="1.18" density="3.95" occupancy="1.97" noStops="0" speed="10.13" entered="4" emitted="0" left="4"/>
      <edge id=":m4_0" traveltime="0.66" sampledSeconds="3.29" density="4.54" occupancy="2.27" noStops="0" speed="11.01" entered="5" emitted="0" left="5"/>
      <edge id=":m4_1" traveltime="0.40" sampledSeconds="3.62" density="8.11" occupancy="4.05" noStops="0" speed="11.10" entered="9" emitted="0" left="9"/>
      <edge id=":m4_2" traveltime="0.27" sampledSeconds="1.90" density="6.32" occupancy="3.16" noStops="0" speed="11.07" entered="7" emitted="0" left="7"/>
      <edge id="1fi" traveltime="29.45" sampledSeconds="816.39" density="32.85" occupancy="16.43" noStops="11" speed="8.44" entered="21" emitted="11" left="29"/>
      <edge id="1o" traveltime="49.33" sampledSeconds="1014.46" density="20.76" occupancy="10.38" noStops="0" speed="9.91" entered="21" emitted="0" left="20"/>
      <edge id="1si" traveltime="119.98" sampledSeconds="3278.24" density="138.23" occupancy="23.04" noStops="1811" speed="4.47" entered="29" emitted="0" left="25"/>
      <edge id="2fi" traveltime="29.68" sampledSeconds="706.47" density="28.43" occupancy="14.21" noStops="11" speed="8.37" entered="21" emitted="11" left="24"/>
      <edge id="2o" traveltime="47.75" sampledSeconds="1178.43" density="24.12" occupancy="12.06" noStops="0" speed="10.23" entered="25" emitted="0" left="21"/>
      <edge id="2si" traveltime="112.94" sampledSeconds="2228.84" density="93.98" occupancy="15.66" noStops="1305" speed="3.54" entered="25" emitted="0" left="18"/>
      <edge id="3fi" traveltime="31.83" sampledSeconds="605.05" density="24.35" occupancy="12.17" noStops="15" speed="7.81" entered="18" emitted="15" left="18"/>
      <edge id="3o" traveltime="48.05" sampledSeconds="943.68" density="19.31" occupancy="9.66" noStops="0" speed="10.17" entered="17" emitted="0" left="18"/>
      <edge id="3si" traveltime="40.73" sampledSeconds="851.69" density="35.91" occupancy="5.99" noStops="329" speed="6.85" entered="18" emitted="0" left="27"/>
      <edge id="4fi" traveltime="22.99" sampledSeconds="461.44" density="18.57" occupancy="9.28" noStops="0" speed="10.81" entered="20" emitted="0" left="21"/>
      <edge id="4o" traveltime="47.42" sampledSeconds="1078.60" density="22.07" occupancy="11.04" noStops="0" speed="10.30" entered="22" emitted="0" left="20"/>
      <edge id="4si" traveltime="45.03" sampledSeconds="854.03" density="36.01" occupancy="6.00" noStops="293" speed="7.24" entered="21" emitted="0" left="23"/>
   </interval>
</netstats>
