<?xml version="1.0"?>

<!-- generated on Mon Nov 26 13:04:43 2012 by SUMO sumo Version dev-SVN-r13045
<?xml version="1.0" encoding="UTF-8"?>

<configuration xmlns:xsi="http://www.w3.org/2001/XMLSchema-instance" xsi:noNamespaceSchemaLocation="http://sumo.sf.net/xsd/sumoConfiguration.xsd">

    <input>
        <net-file value="net.net.xml"/>
        <route-files value="input_routes.rou.xml"/>
        <additional-files value="input_additional.add.xml"/>
    </input>

    <time>
        <begin value="0"/>
        <end value="1000"/>
    </time>

    <report>
        <no-duration-log value="true"/>
        <no-step-log value="true"/>
    </report>

</configuration>
-->

<netstats>
    <interval begin="0.00" end="900.00" id="dump_900">
        <edge id="1fi" sampledSeconds="5364.97" traveltime="27.84" density="23.99" occupancy="7.20" waitingTime="10.00" speed="8.93" departed="80" arrived="11" entered="116" left="172" laneChangedFrom="0" laneChangedTo="0"/>
        <edge id="1o" sampledSeconds="5796.05" traveltime="47.68" density="13.18" occupancy="3.95" waitingTime="0.00" speed="10.25" departed="0" arrived="0" entered="125" left="116" laneChangedFrom="0" laneChangedTo="0"/>
        <edge id="1si" sampledSeconds="20646.31" traveltime="136.31" density="96.73" occupancy="9.67" waitingTime="12419.00" speed="1.74" departed="0" arrived="0" entered="172" left="127" laneChangedFrom="0" laneChangedTo="0"/>
        <edge id="2fi" sampledSeconds="5836.30" traveltime="27.58" density="26.10" occupancy="7.83" waitingTime="0.00" speed="9.01" departed="80" arrived="54" entered="134" left="154" laneChangedFrom="0" laneChangedTo="0"/>
        <edge id="2o" sampledSeconds="6684.98" traveltime="47.19" density="15.20" occupancy="4.56" waitingTime="0.00" speed="10.35" departed="0" arrived="0" entered="146" left="134" laneChangedFrom="0" laneChangedTo="0"/>
        <edge id="2si" sampledSeconds="7773.36" traveltime="51.25" density="36.42" occupancy="3.64" waitingTime="3397.00" speed="4.63" departed="0" arrived="0" entered="153" left="145" laneChangedFrom="0" laneChangedTo="0"/>
        <edge id="3fi" sampledSeconds="6341.78" traveltime="29.30" density="28.36" occupancy="8.51" waitingTime="4.00" speed="8.48" departed="130" arrived="71" entered="90" left="141" laneChangedFrom="0" laneChangedTo="0"/>
        <edge id="3o" sampledSeconds="4574.85" traveltime="47.60" density="10.40" occupancy="3.12" waitingTime="0.00" speed="10.27" departed="0" arrived="0" entered="102" left="90" laneChangedFrom="0" laneChangedTo="0"/>
        <edge id="3si" sampledSeconds="6812.97" traveltime="48.41" density="31.92" occupancy="3.19" waitingTime="3021.00" speed="4.90" departed="0" arrived="0" entered="141" left="127" laneChangedFrom="0" laneChangedTo="0"/>
        <edge id="4fi" sampledSeconds="3035.01" traveltime="22.78" density="13.57" occupancy="4.07" waitingTime="0.00" speed="10.91" departed="0" arrived="0" entered="132" left="131" laneChangedFrom="0" laneChangedTo="0"/>
        <edge id="4o" sampledSeconds="6400.09" traveltime="46.77" density="14.55" occupancy="4.37" waitingTime="0.00" speed="10.45" departed="0" arrived="0" entered="140" left="132" laneChangedFrom="0" laneChangedTo="0"/>
        <edge id="4si" sampledSeconds="5192.52" traveltime="40.46" density="24.33" occupancy="2.43" waitingTime="2006.00" speed="5.86" departed="0" arrived="0" entered="131" left="115" laneChangedFrom="0" laneChangedTo="0"/>
    </interval>
    <interval begin="900.00" end="1000.00" id="dump_900">
        <edge id="1fi" sampledSeconds="2017.14" traveltime="87.25" density="81.17" occupancy="24.35" waitingTime="899.00" speed="2.85" departed="10" arrived="2" entered="19" left="9" laneChangedFrom="0" laneChangedTo="0"/>
        <edge id="1o" sampledSeconds="1011.74" traveltime="47.60" density="20.70" occupancy="6.21" waitingTime="0.00" speed="10.27" departed="0" arrived="0" entered="21" left="19" laneChangedFrom="0" laneChangedTo="0"/>
        <edge id="1si" sampledSeconds="4690.93" traveltime="466.64" density="197.80" occupancy="19.78" waitingTime="3093.00" speed="0.51" departed="0" arrived="0" entered="9" left="11" laneChangedFrom="0" laneChangedTo="0"/>
        <edge id="2fi" sampledSeconds="848.65" traveltime="27.14" density="34.15" occupancy="10.25" waitingTime="0.00" speed="9.16" departed="10" arrived="10" entered="21" left="20" laneChangedFrom="0" laneChangedTo="0"/>
        <edge id="2o" sampledSeconds="712.83" traveltime="49.64" density="14.59" occupancy="4.38" waitingTime="0.00" speed="9.84" departed="0" arrived="0" entered="11" left="21" laneChangedFrom="0" laneChangedTo="0"/>
        <edge id="2si" sampledSeconds="1067.21" traveltime="48.42" density="45.00" occupancy="4.50" waitingTime="432.00" speed="4.90" departed="0" arrived="0" entered="21" left="19" laneChangedFrom="0" laneChangedTo="0"/>
        <edge id="3fi" sampledSeconds="877.65" traveltime="28.07" density="35.32" occupancy="10.60" waitingTime="0.00" speed="8.85" departed="10" arrived="17" entered="22" left="15" laneChangedFrom="0" laneChangedTo="0"/>
        <edge id="3o" sampledSeconds="1120.94" traveltime="47.94" density="22.94" occupancy="6.88" waitingTime="0.00" speed="10.19" departed="0" arrived="0" entered="19" left="22" laneChangedFrom="0" laneChangedTo="0"/>
        <edge id="3si" sampledSeconds="817.33" traveltime="51.23" density="34.46" occupancy="3.45" waitingTime="331.00" speed="4.63" departed="0" arrived="0" entered="14" left="23" laneChangedFrom="0" laneChangedTo="0"/>
        <edge id="4fi" sampledSeconds="330.41" traveltime="22.78" density="13.30" occupancy="3.99" waitingTime="0.00" speed="10.91" departed="0" arrived="0" entered="14" left="14" laneChangedFrom="0" laneChangedTo="0"/>
        <edge id="4o" sampledSeconds="742.39" traveltime="47.36" density="15.19" occupancy="4.56" waitingTime="0.00" speed="10.32" departed="0" arrived="0" entered="16" left="14" laneChangedFrom="0" laneChangedTo="0"/>
        <edge id="4si" sampledSeconds="821.96" traveltime="48.30" density="34.66" occupancy="3.47" waitingTime="339.00" speed="4.91" departed="0" arrived="0" entered="14" left="22" laneChangedFrom="0" laneChangedTo="0"/>
    </interval>
</netstats>
