<?xml version="1.0"?>

<!-- generated on Fri Feb  1 15:04:47 2013 by SUMO sumo Version dev-SVN-r13266
<?xml version="1.0" encoding="UTF-8"?>

<configuration xmlns:xsi="http://www.w3.org/2001/XMLSchema-instance" xsi:noNamespaceSchemaLocation="http://sumo.sf.net/xsd/sumoConfiguration.xsd">

    <input>
        <net-file value="net.net.xml"/>
        <route-files value="input_routes.rou.xml"/>
        <additional-files value="input_additional.add.xml"/>
    </input>

    <time>
        <begin value="0"/>
        <end value="1000"/>
    </time>

    <report>
        <no-duration-log value="true"/>
        <no-step-log value="true"/>
    </report>

</configuration>
-->

<netstats>
    <interval begin="0.00" end="300.00" id="dump_300">
        <edge id="1fi" sampledSeconds="708.19" traveltime="29.75" density="9.50" occupancy="2.85" waitingTime="0.00" speed="8.35" departed="19" arrived="0" entered="11" left="19" laneChangedFrom="0" laneChangedTo="0"/>
        <edge id="1o" sampledSeconds="508.04" traveltime="45.90" density="3.47" occupancy="1.04" waitingTime="0.00" speed="10.65" departed="0" arrived="0" entered="11" left="11" laneChangedFrom="0" laneChangedTo="0"/>
        <edge id="1si" sampledSeconds="882.10" traveltime="49.34" density="12.40" occupancy="1.24" waitingTime="404.00" speed="4.81" departed="0" arrived="0" entered="19" left="10" laneChangedFrom="0" laneChangedTo="0"/>
        <edge id="2fi" sampledSeconds="784.42" traveltime="30.05" density="10.52" occupancy="3.16" waitingTime="0.00" speed="8.27" departed="20" arrived="0" entered="9" left="24" laneChangedFrom="0" laneChangedTo="0"/>
        <edge id="2o" sampledSeconds="545.26" traveltime="48.65" density="3.72" occupancy="1.12" waitingTime="0.00" speed="10.04" departed="0" arrived="0" entered="17" left="9" laneChangedFrom="0" laneChangedTo="0"/>
        <edge id="2si" sampledSeconds="846.90" traveltime="37.81" density="11.90" occupancy="1.19" waitingTime="314.00" speed="6.27" departed="0" arrived="0" entered="24" left="11" laneChangedFrom="0" laneChangedTo="0"/>
        <edge id="3fi" sampledSeconds="1172.33" traveltime="32.10" density="15.73" occupancy="4.72" waitingTime="1.00" speed="7.74" departed="40" arrived="0" entered="0" left="34" laneChangedFrom="0" laneChangedTo="0"/>
        <edge id="3o" sampledSeconds="91.41" traveltime="44.70" density="0.62" occupancy="0.19" waitingTime="0.00" speed="10.93" departed="0" arrived="0" entered="6" left="0" laneChangedFrom="0" laneChangedTo="0"/>
        <edge id="3si" sampledSeconds="1237.06" traveltime="37.85" density="17.39" occupancy="1.74" waitingTime="418.00" speed="6.27" departed="0" arrived="0" entered="34" left="31" laneChangedFrom="0" laneChangedTo="0"/>
        <edge id="4fi" sampledSeconds="207.36" traveltime="22.77" density="2.78" occupancy="0.83" waitingTime="0.00" speed="10.92" departed="0" arrived="0" entered="9" left="9" laneChangedFrom="0" laneChangedTo="0"/>
        <edge id="4o" sampledSeconds="701.02" traveltime="47.08" density="4.78" occupancy="1.43" waitingTime="0.00" speed="10.38" departed="0" arrived="0" entered="23" left="9" laneChangedFrom="0" laneChangedTo="0"/>
        <edge id="4si" sampledSeconds="281.96" traveltime="31.07" density="3.96" occupancy="0.40" waitingTime="92.00" speed="7.63" departed="0" arrived="0" entered="9" left="8" laneChangedFrom="0" laneChangedTo="0"/>
    </interval>
    <interval begin="300.00" end="600.00" id="dump_300">
        <edge id="1fi" sampledSeconds="1828.59" traveltime="26.99" density="24.53" occupancy="7.36" waitingTime="0.00" speed="9.21" departed="30" arrived="0" entered="36" left="70" laneChangedFrom="0" laneChangedTo="0"/>
        <edge id="1o" sampledSeconds="2010.56" traveltime="46.78" density="13.72" occupancy="4.11" waitingTime="0.00" speed="10.44" departed="0" arrived="0" entered="48" left="36" laneChangedFrom="0" laneChangedTo="0"/>
        <edge id="1si" sampledSeconds="6198.63" traveltime="99.45" density="87.13" occupancy="8.71" waitingTime="3730.00" speed="2.38" departed="0" arrived="0" entered="70" left="47" laneChangedFrom="0" laneChangedTo="0"/>
        <edge id="2fi" sampledSeconds="2500.05" traveltime="27.58" density="33.54" occupancy="10.06" waitingTime="0.00" speed="9.01" departed="30" arrived="27" entered="61" left="62" laneChangedFrom="0" laneChangedTo="0"/>
        <edge id="2o" sampledSeconds="3105.57" traveltime="47.21" density="21.18" occupancy="6.36" waitingTime="0.00" speed="10.35" departed="0" arrived="0" entered="65" left="61" laneChangedFrom="0" laneChangedTo="0"/>
        <edge id="2si" sampledSeconds="3508.31" traveltime="54.82" density="49.31" occupancy="4.93" waitingTime="1586.00" speed="4.33" departed="0" arrived="0" entered="62" left="66" laneChangedFrom="0" laneChangedTo="0"/>
        <edge id="3fi" sampledSeconds="2402.38" traveltime="29.45" density="32.23" occupancy="9.67" waitingTime="1.00" speed="8.44" departed="51" arrived="23" entered="32" left="57" laneChangedFrom="0" laneChangedTo="0"/>
        <edge id="3o" sampledSeconds="1623.55" traveltime="46.55" density="11.08" occupancy="3.32" waitingTime="0.00" speed="10.50" departed="0" arrived="0" entered="35" left="32" laneChangedFrom="0" laneChangedTo="0"/>
        <edge id="3si" sampledSeconds="2830.87" traveltime="49.93" density="39.79" occupancy="3.98" waitingTime="1255.00" speed="4.75" departed="0" arrived="0" entered="57" left="50" laneChangedFrom="0" laneChangedTo="0"/>
        <edge id="4fi" sampledSeconds="1451.89" traveltime="22.77" density="19.48" occupancy="5.84" waitingTime="0.00" speed="10.91" departed="0" arrived="0" entered="66" left="61" laneChangedFrom="0" laneChangedTo="0"/>
        <edge id="4o" sampledSeconds="3073.25" traveltime="46.68" density="20.96" occupancy="6.29" waitingTime="0.00" speed="10.47" departed="0" arrived="0" entered="62" left="66" laneChangedFrom="0" laneChangedTo="0"/>
        <edge id="4si" sampledSeconds="2727.30" traveltime="44.77" density="38.33" occupancy="3.83" waitingTime="1151.00" speed="5.30" departed="0" arrived="0" entered="61" left="52" laneChangedFrom="0" laneChangedTo="0"/>
    </interval>
    <interval begin="600.00" end="900.00" id="dump_300">
        <edge id="1fi" sampledSeconds="2726.59" traveltime="27.27" density="36.57" occupancy="10.97" waitingTime="1.00" speed="9.11" departed="30" arrived="10" entered="69" left="87" laneChangedFrom="0" laneChangedTo="0"/>
        <edge id="1o" sampledSeconds="3238.74" traveltime="48.06" density="22.09" occupancy="6.63" waitingTime="0.00" speed="10.17" departed="0" arrived="0" entered="65" left="69" laneChangedFrom="0" laneChangedTo="0"/>
        <edge id="1si" sampledSeconds="12215.05" traveltime="167.42" density="171.69" occupancy="17.17" waitingTime="7245.00" speed="1.42" departed="0" arrived="0" entered="86" left="73" laneChangedFrom="0" laneChangedTo="0"/>
        <edge id="2fi" sampledSeconds="2592.16" traveltime="27.49" density="34.77" occupancy="10.43" waitingTime="0.00" speed="9.04" departed="29" arrived="27" entered="66" left="66" laneChangedFrom="0" laneChangedTo="0"/>
        <edge id="2o" sampledSeconds="3147.65" traveltime="47.26" density="21.47" occupancy="6.44" waitingTime="0.00" speed="10.34" departed="0" arrived="0" entered="66" left="66" laneChangedFrom="0" laneChangedTo="0"/>
        <edge id="2si" sampledSeconds="3424.20" traveltime="53.39" density="48.13" occupancy="4.81" waitingTime="1527.00" speed="4.44" departed="0" arrived="0" entered="66" left="67" laneChangedFrom="0" laneChangedTo="0"/>
        <edge id="3fi" sampledSeconds="2729.40" traveltime="28.25" density="36.61" occupancy="10.98" waitingTime="1.00" speed="8.80" departed="37" arrived="49" entered="58" left="48" laneChangedFrom="0" laneChangedTo="0"/>
        <edge id="3o" sampledSeconds="2863.09" traveltime="48.78" density="19.53" occupancy="5.86" waitingTime="0.00" speed="10.02" departed="0" arrived="0" entered="60" left="58" laneChangedFrom="0" laneChangedTo="0"/>
        <edge id="3si" sampledSeconds="2584.40" traveltime="52.02" density="36.33" occupancy="3.63" waitingTime="1251.00" speed="4.56" departed="0" arrived="0" entered="48" left="45" laneChangedFrom="0" laneChangedTo="0"/>
        <edge id="4fi" sampledSeconds="1406.45" traveltime="22.78" density="18.87" occupancy="5.66" waitingTime="0.00" speed="10.91" departed="0" arrived="0" entered="58" left="63" laneChangedFrom="0" laneChangedTo="0"/>
        <edge id="4o" sampledSeconds="2687.55" traveltime="46.98" density="18.33" occupancy="5.50" waitingTime="0.00" speed="10.40" departed="0" arrived="0" entered="57" left="58" laneChangedFrom="0" laneChangedTo="0"/>
        <edge id="4si" sampledSeconds="3372.32" traveltime="55.94" density="47.40" occupancy="4.74" waitingTime="1676.00" speed="4.24" departed="0" arrived="0" entered="63" left="57" laneChangedFrom="0" laneChangedTo="0"/>
    </interval>
    <interval begin="900.00" end="1000.00" id="dump_300">
        <edge id="1fi" sampledSeconds="1214.65" traveltime="42.19" density="48.88" occupancy="14.66" waitingTime="176.00" speed="5.89" departed="11" arrived="3" entered="18" left="17" laneChangedFrom="0" laneChangedTo="0"/>
        <edge id="1o" sampledSeconds="1002.59" traveltime="47.77" density="20.52" occupancy="6.16" waitingTime="0.00" speed="10.23" departed="0" arrived="0" entered="22" left="18" laneChangedFrom="0" laneChangedTo="0"/>
        <edge id="1si" sampledSeconds="5121.83" traveltime="261.19" density="215.97" occupancy="21.60" waitingTime="2983.00" speed="0.91" departed="0" arrived="0" entered="18" left="12" laneChangedFrom="0" laneChangedTo="0"/>
        <edge id="2fi" sampledSeconds="912.00" traveltime="27.71" density="36.70" occupancy="11.01" waitingTime="0.00" speed="8.97" departed="11" arrived="10" entered="21" left="22" laneChangedFrom="0" laneChangedTo="0"/>
        <edge id="2o" sampledSeconds="756.34" traveltime="52.46" density="15.48" occupancy="4.64" waitingTime="0.00" speed="9.31" departed="0" arrived="0" entered="11" left="21" laneChangedFrom="0" laneChangedTo="0"/>
        <edge id="2si" sampledSeconds="1240.36" traveltime="53.07" density="52.30" occupancy="5.23" waitingTime="528.00" speed="4.47" departed="0" arrived="0" entered="22" left="21" laneChangedFrom="0" laneChangedTo="0"/>
        <edge id="3fi" sampledSeconds="873.26" traveltime="28.43" density="35.14" occupancy="10.54" waitingTime="2.00" speed="8.74" departed="14" arrived="15" entered="17" left="16" laneChangedFrom="0" laneChangedTo="0"/>
        <edge id="3o" sampledSeconds="985.07" traveltime="47.29" density="20.16" occupancy="6.05" waitingTime="0.00" speed="10.33" departed="0" arrived="0" entered="20" left="17" laneChangedFrom="0" laneChangedTo="0"/>
        <edge id="3si" sampledSeconds="842.95" traveltime="50.94" density="35.54" occupancy="3.55" waitingTime="344.00" speed="4.66" departed="0" arrived="0" entered="16" left="22" laneChangedFrom="0" laneChangedTo="0"/>
        <edge id="4fi" sampledSeconds="369.06" traveltime="22.79" density="14.85" occupancy="4.46" waitingTime="0.00" speed="10.90" departed="0" arrived="0" entered="17" left="16" laneChangedFrom="0" laneChangedTo="0"/>
        <edge id="4o" sampledSeconds="821.39" traveltime="47.04" density="16.81" occupancy="5.04" waitingTime="0.00" speed="10.39" departed="0" arrived="0" entered="17" left="17" laneChangedFrom="0" laneChangedTo="0"/>
        <edge id="4si" sampledSeconds="812.06" traveltime="44.61" density="34.24" occupancy="3.42" waitingTime="296.00" speed="5.32" departed="0" arrived="0" entered="16" left="22" laneChangedFrom="0" laneChangedTo="0"/>
    </interval>
</netstats>
