<?xml version="1.0"?>

<!-- generated on 11/05/09 14:44:58 by SUMO sumo Version dev-SVN-r7945
<configuration>

    <input>
        <net-file value="net.net.xml"/>
        <route-files value="input_routes.rou.xml"/>
        <additional-files value="input_additional.add.xml"/>
    </input>

    <time>
        <begin value="0"/>
        <end value="1000"/>
    </time>

    <report>
        <no-duration-log value="true"/>
        <no-step-log value="true"/>
    </report>

</configuration>
-->

<netstats>
   <interval begin="0" end="300" id="dump_300">
      <edge id=":0_0" sampledSeconds="0.00" departed="0" arrived="0" entered="0" left="0" laneChangedFrom="0" laneChangedTo="0"/>
      <edge id=":0_1" sampledSeconds="12.06" traveltime="2.01" density="1.75" occupancy="0.87" waitingTime="0.00" speed="11.43" departed="0" arrived="0" entered="6" left="6" laneChangedFrom="0" laneChangedTo="0"/>
      <edge id=":0_2" sampledSeconds="76.30" traveltime="41.65" density="19.68" occupancy="9.84" waitingTime="231.99" speed="0.31" departed="0" arrived="0" entered="3" left="0" laneChangedFrom="0" laneChangedTo="0"/>
      <edge id=":0_16" sampledSeconds="0.00" departed="0" arrived="0" entered="0" left="0" laneChangedFrom="0" laneChangedTo="0"/>
      <edge id=":0_3" sampledSeconds="0.00" departed="0" arrived="0" entered="0" left="0" laneChangedFrom="0" laneChangedTo="0"/>
      <edge id=":0_17" sampledSeconds="0.00" departed="0" arrived="0" entered="0" left="0" laneChangedFrom="0" laneChangedTo="0"/>
      <edge id=":0_4" sampledSeconds="0.00" departed="0" arrived="0" entered="0" left="0" laneChangedFrom="0" laneChangedTo="0"/>
      <edge id=":0_5" sampledSeconds="43.57" traveltime="3.96" density="6.32" occupancy="3.16" waitingTime="0.00" speed="5.80" departed="0" arrived="0" entered="11" left="11" laneChangedFrom="0" laneChangedTo="0"/>
      <edge id=":0_6" sampledSeconds="0.00" departed="0" arrived="0" entered="0" left="0" laneChangedFrom="0" laneChangedTo="0"/>
      <edge id=":0_18" sampledSeconds="0.00" departed="0" arrived="0" entered="0" left="0" laneChangedFrom="0" laneChangedTo="0"/>
      <edge id=":0_7" sampledSeconds="0.00" departed="0" arrived="0" entered="0" left="0" laneChangedFrom="0" laneChangedTo="0"/>
      <edge id=":0_19" sampledSeconds="0.00" departed="0" arrived="0" entered="0" left="0" laneChangedFrom="0" laneChangedTo="0"/>
      <edge id=":0_8" sampledSeconds="37.83" traveltime="2.52" density="11.59" occupancy="5.80" waitingTime="0.00" speed="4.31" departed="0" arrived="0" entered="15" left="15" laneChangedFrom="0" laneChangedTo="0"/>
      <edge id=":0_9" sampledSeconds="68.23" traveltime="4.55" density="9.90" occupancy="4.95" waitingTime="0.00" speed="5.05" departed="0" arrived="0" entered="15" left="15" laneChangedFrom="0" laneChangedTo="0"/>
      <edge id=":0_10" sampledSeconds="0.00" departed="0" arrived="0" entered="0" left="0" laneChangedFrom="0" laneChangedTo="0"/>
      <edge id=":0_20" sampledSeconds="0.00" departed="0" arrived="0" entered="0" left="0" laneChangedFrom="0" laneChangedTo="0"/>
      <edge id=":0_11" sampledSeconds="0.00" departed="0" arrived="0" entered="0" left="0" laneChangedFrom="0" laneChangedTo="0"/>
      <edge id=":0_21" sampledSeconds="0.00" departed="0" arrived="0" entered="0" left="0" laneChangedFrom="0" laneChangedTo="0"/>
      <edge id=":0_12" sampledSeconds="0.00" departed="0" arrived="0" entered="0" left="0" laneChangedFrom="0" laneChangedTo="0"/>
      <edge id=":0_13" sampledSeconds="3.91" traveltime="1.95" density="0.57" occupancy="0.28" waitingTime="0.00" speed="11.77" departed="0" arrived="0" entered="2" left="2" laneChangedFrom="0" laneChangedTo="0"/>
      <edge id=":0_14" sampledSeconds="71.03" traveltime="7.89" density="32.13" occupancy="16.06" waitingTime="177.39" speed="0.93" departed="0" arrived="0" entered="9" left="9" laneChangedFrom="0" laneChangedTo="0"/>
      <edge id=":0_22" sampledSeconds="31.07" traveltime="3.45" density="7.62" occupancy="3.81" waitingTime="0.00" speed="3.94" departed="0" arrived="0" entered="9" left="9" laneChangedFrom="0" laneChangedTo="0"/>
      <edge id=":0_15" sampledSeconds="0.00" departed="0" arrived="0" entered="0" left="0" laneChangedFrom="0" laneChangedTo="0"/>
      <edge id=":0_23" sampledSeconds="0.00" departed="0" arrived="0" entered="0" left="0" laneChangedFrom="0" laneChangedTo="0"/>
      <edge id=":1_0" sampledSeconds="5.68" traveltime="0.52" density="3.93" occupancy="1.96" waitingTime="0.00" speed="9.33" departed="0" arrived="0" entered="11" left="11" laneChangedFrom="0" laneChangedTo="0"/>
      <edge id=":2_0" sampledSeconds="9.07" traveltime="1.01" density="6.27" occupancy="3.14" waitingTime="0.00" speed="4.78" departed="0" arrived="0" entered="9" left="9" laneChangedFrom="0" laneChangedTo="0"/>
      <edge id=":3_0" sampledSeconds="0.00" departed="0" arrived="0" entered="0" left="0" laneChangedFrom="0" laneChangedTo="0"/>
      <edge id=":4_0" sampledSeconds="4.55" traveltime="0.51" density="3.15" occupancy="1.57" waitingTime="0.00" speed="9.54" departed="0" arrived="0" entered="9" left="9" laneChangedFrom="0" laneChangedTo="0"/>
      <edge id=":m1_0" sampledSeconds="0.00" departed="0" arrived="0" entered="0" left="0" laneChangedFrom="0" laneChangedTo="0"/>
      <edge id=":m1_1" sampledSeconds="0.81" traveltime="0.41" density="0.61" occupancy="0.30" waitingTime="0.00" speed="10.97" departed="0" arrived="0" entered="2" left="2" laneChangedFrom="0" laneChangedTo="0"/>
      <edge id=":m1_2" sampledSeconds="4.65" traveltime="0.27" density="5.17" occupancy="2.58" waitingTime="0.00" speed="10.97" departed="0" arrived="0" entered="17" left="17" laneChangedFrom="0" laneChangedTo="0"/>
      <edge id=":m2_0" sampledSeconds="5.18" traveltime="0.74" density="2.38" occupancy="1.19" waitingTime="0.00" speed="9.79" departed="0" arrived="0" entered="7" left="7" laneChangedFrom="0" laneChangedTo="0"/>
      <edge id=":m2_1" sampledSeconds="6.84" traveltime="0.40" density="5.11" occupancy="2.56" waitingTime="0.00" speed="11.08" departed="0" arrived="0" entered="17" left="17" laneChangedFrom="0" laneChangedTo="0"/>
      <edge id=":m2_2" sampledSeconds="0.00" departed="0" arrived="0" entered="0" left="0" laneChangedFrom="0" laneChangedTo="0"/>
      <edge id=":m3_0" sampledSeconds="11.13" traveltime="0.65" density="5.12" occupancy="2.56" waitingTime="0.00" speed="11.07" departed="0" arrived="0" entered="17" left="17" laneChangedFrom="0" laneChangedTo="0"/>
      <edge id=":m3_1" sampledSeconds="6.89" traveltime="0.41" density="5.15" occupancy="2.58" waitingTime="0.00" speed="11.00" departed="0" arrived="0" entered="17" left="17" laneChangedFrom="0" laneChangedTo="0"/>
      <edge id=":m3_2" sampledSeconds="0.00" departed="0" arrived="0" entered="0" left="0" laneChangedFrom="0" laneChangedTo="0"/>
      <edge id=":m4_0" sampledSeconds="0.00" departed="0" arrived="0" entered="0" left="0" laneChangedFrom="0" laneChangedTo="0"/>
      <edge id=":m4_1" sampledSeconds="2.54" traveltime="0.42" density="1.90" occupancy="0.95" waitingTime="0.00" speed="10.52" departed="0" arrived="0" entered="6" left="6" laneChangedFrom="0" laneChangedTo="0"/>
      <edge id=":m4_2" sampledSeconds="0.81" traveltime="0.27" density="0.90" occupancy="0.45" waitingTime="0.00" speed="11.13" departed="0" arrived="0" entered="3" left="3" laneChangedFrom="0" laneChangedTo="0"/>
      <edge id="1fi" sampledSeconds="722.45" traveltime="30.22" density="9.69" occupancy="4.85" waitingTime="0.00" speed="8.22" departed="19" arrived="0" entered="11" left="19" laneChangedFrom="0" laneChangedTo="0"/>
      <edge id="1o" sampledSeconds="508.39" traveltime="46.22" density="3.47" occupancy="1.73" waitingTime="0.00" speed="10.57" departed="0" arrived="0" entered="11" left="11" laneChangedFrom="0" laneChangedTo="0"/>
      <edge id="1si" sampledSeconds="803.55" traveltime="44.82" density="11.29" occupancy="1.88" waitingTime="126.94" speed="5.29" departed="0" arrived="0" entered="19" left="11" laneChangedFrom="0" laneChangedTo="0"/>
      <edge id="2fi" sampledSeconds="788.95" traveltime="31.01" density="10.58" occupancy="5.29" waitingTime="0.00" speed="8.01" departed="20" arrived="2" entered="9" left="24" laneChangedFrom="0" laneChangedTo="0"/>
      <edge id="2o" sampledSeconds="557.94" traveltime="49.00" density="3.81" occupancy="1.90" waitingTime="0.00" speed="9.97" departed="0" arrived="0" entered="17" left="9" laneChangedFrom="0" laneChangedTo="0"/>
      <edge id="2si" sampledSeconds="807.09" traveltime="36.49" density="11.34" occupancy="1.89" waitingTime="112.63" speed="6.50" departed="0" arrived="0" entered="24" left="11" laneChangedFrom="0" laneChangedTo="0"/>
      <edge id="3fi" sampledSeconds="1180.55" traveltime="32.35" density="15.84" occupancy="7.92" waitingTime="0.00" speed="7.68" departed="40" arrived="0" entered="0" left="34" laneChangedFrom="0" laneChangedTo="0"/>
      <edge id="3o" sampledSeconds="82.84" traveltime="44.62" density="0.57" occupancy="0.28" waitingTime="0.00" speed="10.95" departed="0" arrived="0" entered="6" left="0" laneChangedFrom="0" laneChangedTo="0"/>
      <edge id="3si" sampledSeconds="1181.24" traveltime="36.80" density="16.60" occupancy="2.77" waitingTime="106.16" speed="6.45" departed="0" arrived="0" entered="34" left="30" laneChangedFrom="0" laneChangedTo="0"/>
      <edge id="4fi" sampledSeconds="207.43" traveltime="23.05" density="2.78" occupancy="1.39" waitingTime="0.00" speed="10.78" departed="0" arrived="0" entered="9" left="9" laneChangedFrom="0" laneChangedTo="0"/>
      <edge id="4o" sampledSeconds="728.45" traveltime="48.17" density="4.97" occupancy="2.48" waitingTime="0.00" speed="10.14" departed="0" arrived="0" entered="24" left="9" laneChangedFrom="0" laneChangedTo="0"/>
      <edge id="4si" sampledSeconds="217.95" traveltime="24.22" density="3.06" occupancy="0.51" waitingTime="48.18" speed="9.79" departed="0" arrived="0" entered="9" left="9" laneChangedFrom="0" laneChangedTo="0"/>
   </interval>
   <interval begin="300" end="600" id="dump_300">
      <edge id=":0_0" sampledSeconds="41.48" traveltime="2.59" density="12.71" occupancy="6.35" waitingTime="0.00" speed="4.20" departed="0" arrived="0" entered="16" left="16" laneChangedFrom="0" laneChangedTo="0"/>
      <edge id=":0_1" sampledSeconds="51.38" traveltime="1.98" density="7.45" occupancy="3.73" waitingTime="0.00" speed="11.63" departed="0" arrived="0" entered="26" left="26" laneChangedFrom="0" laneChangedTo="0"/>
      <edge id=":0_2" sampledSeconds="282.66" traveltime="14.02" density="72.93" occupancy="36.46" waitingTime="165.57" speed="0.92" departed="0" arrived="0" entered="19" left="22" laneChangedFrom="0" laneChangedTo="0"/>
      <edge id=":0_16" sampledSeconds="53.67" traveltime="2.44" density="22.22" occupancy="11.11" waitingTime="0.00" speed="3.30" departed="0" arrived="0" entered="22" left="22" laneChangedFrom="0" laneChangedTo="0"/>
      <edge id=":0_3" sampledSeconds="0.00" departed="0" arrived="0" entered="0" left="0" laneChangedFrom="0" laneChangedTo="0"/>
      <edge id=":0_17" sampledSeconds="0.00" departed="0" arrived="0" entered="0" left="0" laneChangedFrom="0" laneChangedTo="0"/>
      <edge id=":0_4" sampledSeconds="77.45" traveltime="2.76" density="23.73" occupancy="11.86" waitingTime="0.00" speed="3.94" departed="0" arrived="0" entered="29" left="28" laneChangedFrom="0" laneChangedTo="0"/>
      <edge id=":0_5" sampledSeconds="140.71" traveltime="4.77" density="20.41" occupancy="10.21" waitingTime="0.00" speed="4.82" departed="0" arrived="0" entered="30" left="29" laneChangedFrom="0" laneChangedTo="0"/>
      <edge id=":0_6" sampledSeconds="133.75" traveltime="12.96" density="60.49" occupancy="30.25" waitingTime="210.85" speed="0.57" departed="0" arrived="0" entered="11" left="9" laneChangedFrom="0" laneChangedTo="0"/>
      <edge id=":0_18" sampledSeconds="35.45" traveltime="3.94" density="8.69" occupancy="4.35" waitingTime="0.00" speed="3.45" departed="0" arrived="0" entered="9" left="9" laneChangedFrom="0" laneChangedTo="0"/>
      <edge id=":0_7" sampledSeconds="0.00" departed="0" arrived="0" entered="0" left="0" laneChangedFrom="0" laneChangedTo="0"/>
      <edge id=":0_19" sampledSeconds="0.00" departed="0" arrived="0" entered="0" left="0" laneChangedFrom="0" laneChangedTo="0"/>
      <edge id=":0_8" sampledSeconds="64.83" traveltime="2.59" density="19.86" occupancy="9.93" waitingTime="0.00" speed="4.20" departed="0" arrived="0" entered="25" left="25" laneChangedFrom="0" laneChangedTo="0"/>
      <edge id=":0_9" sampledSeconds="115.40" traveltime="4.62" density="16.74" occupancy="8.37" waitingTime="0.00" speed="4.98" departed="0" arrived="0" entered="25" left="25" laneChangedFrom="0" laneChangedTo="0"/>
      <edge id=":0_10" sampledSeconds="85.21" traveltime="28.40" density="21.98" occupancy="10.99" waitingTime="211.25" speed="0.45" departed="0" arrived="0" entered="3" left="3" laneChangedFrom="0" laneChangedTo="0"/>
      <edge id=":0_20" sampledSeconds="9.34" traveltime="3.11" density="3.87" occupancy="1.93" waitingTime="0.00" speed="2.58" departed="0" arrived="0" entered="3" left="3" laneChangedFrom="0" laneChangedTo="0"/>
      <edge id=":0_11" sampledSeconds="0.00" departed="0" arrived="0" entered="0" left="0" laneChangedFrom="0" laneChangedTo="0"/>
      <edge id=":0_21" sampledSeconds="0.00" departed="0" arrived="0" entered="0" left="0" laneChangedFrom="0" laneChangedTo="0"/>
      <edge id=":0_12" sampledSeconds="15.17" traveltime="3.17" density="4.65" occupancy="2.32" waitingTime="0.00" speed="3.43" departed="0" arrived="0" entered="5" left="4" laneChangedFrom="0" laneChangedTo="0"/>
      <edge id=":0_13" sampledSeconds="57.37" traveltime="1.96" density="8.32" occupancy="4.16" waitingTime="0.00" speed="11.70" departed="0" arrived="0" entered="30" left="29" laneChangedFrom="0" laneChangedTo="0"/>
      <edge id=":0_14" sampledSeconds="205.26" traveltime="9.63" density="92.84" occupancy="46.42" waitingTime="185.62" speed="0.77" departed="0" arrived="0" entered="22" left="20" laneChangedFrom="0" laneChangedTo="0"/>
      <edge id=":0_22" sampledSeconds="69.20" traveltime="3.46" density="16.97" occupancy="8.49" waitingTime="0.00" speed="3.93" departed="0" arrived="0" entered="20" left="20" laneChangedFrom="0" laneChangedTo="0"/>
      <edge id=":0_15" sampledSeconds="0.00" departed="0" arrived="0" entered="0" left="0" laneChangedFrom="0" laneChangedTo="0"/>
      <edge id=":0_23" sampledSeconds="0.00" departed="0" arrived="0" entered="0" left="0" laneChangedFrom="0" laneChangedTo="0"/>
      <edge id=":1_0" sampledSeconds="21.68" traveltime="0.64" density="15.00" occupancy="7.50" waitingTime="0.00" speed="7.56" departed="0" arrived="0" entered="34" left="34" laneChangedFrom="0" laneChangedTo="0"/>
      <edge id=":2_0" sampledSeconds="65.91" traveltime="0.97" density="45.58" occupancy="22.79" waitingTime="0.00" speed="4.97" departed="0" arrived="0" entered="69" left="68" laneChangedFrom="0" laneChangedTo="0"/>
      <edge id=":3_0" sampledSeconds="29.62" traveltime="0.86" density="20.49" occupancy="10.24" waitingTime="0.00" speed="5.60" departed="0" arrived="0" entered="35" left="34" laneChangedFrom="0" laneChangedTo="0"/>
      <edge id=":4_0" sampledSeconds="39.79" traveltime="0.51" density="27.52" occupancy="13.76" waitingTime="0.00" speed="9.36" departed="0" arrived="0" entered="78" left="77" laneChangedFrom="0" laneChangedTo="0"/>
      <edge id=":m1_0" sampledSeconds="5.50" traveltime="0.79" density="2.53" occupancy="1.26" waitingTime="0.00" speed="9.23" departed="0" arrived="0" entered="7" left="7" laneChangedFrom="0" laneChangedTo="0"/>
      <edge id=":m1_1" sampledSeconds="15.33" traveltime="0.45" density="11.46" occupancy="5.73" waitingTime="0.00" speed="9.89" departed="0" arrived="0" entered="34" left="34" laneChangedFrom="0" laneChangedTo="0"/>
      <edge id=":m1_2" sampledSeconds="7.93" traveltime="0.27" density="8.81" occupancy="4.41" waitingTime="0.00" speed="10.97" departed="0" arrived="0" entered="29" left="29" laneChangedFrom="0" laneChangedTo="0"/>
      <edge id=":m2_0" sampledSeconds="22.08" traveltime="0.88" density="10.15" occupancy="5.08" waitingTime="0.00" speed="8.21" departed="0" arrived="0" entered="25" left="25" laneChangedFrom="0" laneChangedTo="0"/>
      <edge id=":m2_1" sampledSeconds="11.27" traveltime="0.40" density="8.42" occupancy="4.21" waitingTime="0.00" speed="11.08" departed="0" arrived="0" entered="28" left="28" laneChangedFrom="0" laneChangedTo="0"/>
      <edge id=":m2_2" sampledSeconds="4.58" traveltime="0.31" density="5.08" occupancy="2.54" waitingTime="0.00" speed="9.84" departed="0" arrived="0" entered="15" left="15" laneChangedFrom="0" laneChangedTo="0"/>
      <edge id=":m3_0" sampledSeconds="18.33" traveltime="0.65" density="8.43" occupancy="4.21" waitingTime="0.00" speed="11.07" departed="0" arrived="0" entered="28" left="28" laneChangedFrom="0" laneChangedTo="0"/>
      <edge id=":m3_1" sampledSeconds="11.27" traveltime="0.40" density="8.42" occupancy="4.21" waitingTime="0.00" speed="11.08" departed="0" arrived="0" entered="28" left="28" laneChangedFrom="0" laneChangedTo="0"/>
      <edge id=":m3_2" sampledSeconds="1.29" traveltime="0.32" density="1.44" occupancy="0.72" waitingTime="0.00" speed="9.27" departed="0" arrived="0" entered="4" left="4" laneChangedFrom="0" laneChangedTo="0"/>
      <edge id=":m4_0" sampledSeconds="16.33" traveltime="0.71" density="7.51" occupancy="3.76" waitingTime="0.00" speed="10.21" departed="0" arrived="0" entered="23" left="23" laneChangedFrom="0" laneChangedTo="0"/>
      <edge id=":m4_1" sampledSeconds="10.65" traveltime="0.41" density="7.96" occupancy="3.98" waitingTime="0.00" speed="10.88" departed="0" arrived="0" entered="26" left="26" laneChangedFrom="0" laneChangedTo="0"/>
      <edge id=":m4_2" sampledSeconds="5.74" traveltime="0.27" density="6.38" occupancy="3.19" waitingTime="0.00" speed="10.98" departed="0" arrived="0" entered="21" left="21" laneChangedFrom="0" laneChangedTo="0"/>
      <edge id="1fi" sampledSeconds="1867.43" traveltime="27.72" density="25.05" occupancy="12.52" waitingTime="0.00" speed="8.96" departed="31" arrived="0" entered="34" left="70" laneChangedFrom="0" laneChangedTo="0"/>
      <edge id="1o" sampledSeconds="2005.70" traveltime="47.85" density="13.68" occupancy="6.84" waitingTime="0.00" speed="10.21" departed="0" arrived="0" entered="48" left="34" laneChangedFrom="0" laneChangedTo="0"/>
      <edge id="1si" sampledSeconds="4478.93" traveltime="66.97" density="62.96" occupancy="10.49" waitingTime="154.26" speed="3.54" departed="0" arrived="0" entered="70" left="57" laneChangedFrom="0" laneChangedTo="0"/>
      <edge id="2fi" sampledSeconds="2031.83" traveltime="29.21" density="27.25" occupancy="13.63" waitingTime="0.15" speed="8.51" departed="30" arrived="26" entered="68" left="68" laneChangedFrom="0" laneChangedTo="0"/>
      <edge id="2o" sampledSeconds="3613.47" traveltime="48.45" density="24.65" occupancy="12.32" waitingTime="0.00" speed="10.09" departed="0" arrived="0" entered="76" left="69" laneChangedFrom="0" laneChangedTo="0"/>
      <edge id="2si" sampledSeconds="3420.35" traveltime="50.06" density="48.08" occupancy="8.01" waitingTime="130.34" speed="4.74" departed="0" arrived="0" entered="68" left="70" laneChangedFrom="0" laneChangedTo="0"/>
      <edge id="3fi" sampledSeconds="1971.18" traveltime="31.38" density="26.44" occupancy="13.22" waitingTime="0.30" speed="7.92" departed="53" arrived="25" entered="34" left="60" laneChangedFrom="0" laneChangedTo="0"/>
      <edge id="3o" sampledSeconds="1801.33" traveltime="46.83" density="12.29" occupancy="6.14" waitingTime="0.00" speed="10.44" departed="0" arrived="0" entered="39" left="35" laneChangedFrom="0" laneChangedTo="0"/>
      <edge id="3si" sampledSeconds="2770.03" traveltime="46.34" density="38.93" occupancy="6.49" waitingTime="131.37" speed="5.12" departed="0" arrived="0" entered="60" left="53" laneChangedFrom="0" laneChangedTo="0"/>
      <edge id="4fi" sampledSeconds="1710.99" traveltime="23.12" density="22.95" occupancy="11.48" waitingTime="0.00" speed="10.75" departed="0" arrived="0" entered="77" left="70" laneChangedFrom="0" laneChangedTo="0"/>
      <edge id="4o" sampledSeconds="3632.82" traveltime="47.40" density="24.78" occupancy="12.39" waitingTime="0.00" speed="10.31" departed="0" arrived="0" entered="73" left="78" laneChangedFrom="0" laneChangedTo="0"/>
      <edge id="4si" sampledSeconds="2423.30" traveltime="35.86" density="34.06" occupancy="5.68" waitingTime="94.09" speed="6.61" departed="0" arrived="0" entered="70" left="61" laneChangedFrom="0" laneChangedTo="0"/>
   </interval>
   <interval begin="600" end="900" id="dump_300">
      <edge id=":0_0" sampledSeconds="64.27" traveltime="2.68" density="19.69" occupancy="9.85" waitingTime="0.00" speed="4.06" departed="0" arrived="0" entered="24" left="24" laneChangedFrom="0" laneChangedTo="0"/>
      <edge id=":0_1" sampledSeconds="38.70" traveltime="1.93" density="5.61" occupancy="2.81" waitingTime="0.00" speed="11.88" departed="0" arrived="0" entered="20" left="20" laneChangedFrom="0" laneChangedTo="0"/>
      <edge id=":0_2" sampledSeconds="254.49" traveltime="12.72" density="65.66" occupancy="32.83" waitingTime="129.67" speed="1.02" departed="0" arrived="0" entered="20" left="20" laneChangedFrom="0" laneChangedTo="0"/>
      <edge id=":0_16" sampledSeconds="53.39" traveltime="2.67" density="22.11" occupancy="11.05" waitingTime="0.00" speed="3.02" departed="0" arrived="0" entered="20" left="20" laneChangedFrom="0" laneChangedTo="0"/>
      <edge id=":0_3" sampledSeconds="0.00" departed="0" arrived="0" entered="0" left="0" laneChangedFrom="0" laneChangedTo="0"/>
      <edge id=":0_17" sampledSeconds="0.00" departed="0" arrived="0" entered="0" left="0" laneChangedFrom="0" laneChangedTo="0"/>
      <edge id=":0_4" sampledSeconds="62.66" traveltime="2.62" density="19.20" occupancy="9.60" waitingTime="0.00" speed="4.16" departed="0" arrived="0" entered="23" left="24" laneChangedFrom="0" laneChangedTo="0"/>
      <edge id=":0_5" sampledSeconds="139.16" traveltime="4.28" density="20.19" occupancy="10.09" waitingTime="0.00" speed="5.37" departed="0" arrived="0" entered="32" left="33" laneChangedFrom="0" laneChangedTo="0"/>
      <edge id=":0_6" sampledSeconds="248.09" traveltime="15.82" density="112.21" occupancy="56.10" waitingTime="221.29" speed="0.47" departed="0" arrived="0" entered="15" left="17" laneChangedFrom="0" laneChangedTo="0"/>
      <edge id=":0_18" sampledSeconds="65.62" traveltime="4.01" density="16.10" occupancy="8.05" waitingTime="0.00" speed="3.39" departed="0" arrived="0" entered="17" left="16" laneChangedFrom="0" laneChangedTo="0"/>
      <edge id=":0_7" sampledSeconds="0.00" departed="0" arrived="0" entered="0" left="0" laneChangedFrom="0" laneChangedTo="0"/>
      <edge id=":0_19" sampledSeconds="0.00" departed="0" arrived="0" entered="0" left="0" laneChangedFrom="0" laneChangedTo="0"/>
      <edge id=":0_8" sampledSeconds="53.06" traveltime="2.95" density="16.26" occupancy="8.13" waitingTime="0.00" speed="3.69" departed="0" arrived="0" entered="18" left="18" laneChangedFrom="0" laneChangedTo="0"/>
      <edge id=":0_9" sampledSeconds="85.97" traveltime="5.06" density="12.47" occupancy="6.24" waitingTime="0.00" speed="4.54" departed="0" arrived="0" entered="17" left="17" laneChangedFrom="0" laneChangedTo="0"/>
      <edge id=":0_10" sampledSeconds="260.44" traveltime="16.28" density="67.19" occupancy="33.60" waitingTime="165.88" speed="0.79" departed="0" arrived="0" entered="16" left="16" laneChangedFrom="0" laneChangedTo="0"/>
      <edge id=":0_20" sampledSeconds="43.46" traveltime="2.72" density="18.00" occupancy="9.00" waitingTime="0.00" speed="2.96" departed="0" arrived="0" entered="16" left="16" laneChangedFrom="0" laneChangedTo="0"/>
      <edge id=":0_11" sampledSeconds="0.00" departed="0" arrived="0" entered="0" left="0" laneChangedFrom="0" laneChangedTo="0"/>
      <edge id=":0_21" sampledSeconds="0.00" departed="0" arrived="0" entered="0" left="0" laneChangedFrom="0" laneChangedTo="0"/>
      <edge id=":0_12" sampledSeconds="68.80" traveltime="2.53" density="21.08" occupancy="10.54" waitingTime="0.00" speed="4.30" departed="0" arrived="0" entered="27" left="28" laneChangedFrom="0" laneChangedTo="0"/>
      <edge id=":0_13" sampledSeconds="59.95" traveltime="1.95" density="8.70" occupancy="4.35" waitingTime="0.00" speed="11.80" departed="0" arrived="0" entered="30" left="31" laneChangedFrom="0" laneChangedTo="0"/>
      <edge id=":0_14" sampledSeconds="220.34" traveltime="9.30" density="99.65" occupancy="49.83" waitingTime="186.53" speed="0.79" departed="0" arrived="0" entered="23" left="25" laneChangedFrom="0" laneChangedTo="0"/>
      <edge id=":0_22" sampledSeconds="89.37" traveltime="3.61" density="21.92" occupancy="10.96" waitingTime="0.00" speed="3.77" departed="0" arrived="0" entered="25" left="24" laneChangedFrom="0" laneChangedTo="0"/>
      <edge id=":0_15" sampledSeconds="0.00" departed="0" arrived="0" entered="0" left="0" laneChangedFrom="0" laneChangedTo="0"/>
      <edge id=":0_23" sampledSeconds="0.00" departed="0" arrived="0" entered="0" left="0" laneChangedFrom="0" laneChangedTo="0"/>
      <edge id=":1_0" sampledSeconds="72.01" traveltime="0.94" density="49.80" occupancy="24.90" waitingTime="0.00" speed="5.12" departed="0" arrived="0" entered="77" left="76" laneChangedFrom="0" laneChangedTo="0"/>
      <edge id=":2_0" sampledSeconds="81.41" traveltime="1.07" density="56.30" occupancy="28.15" waitingTime="0.00" speed="4.50" departed="0" arrived="0" entered="75" left="76" laneChangedFrom="0" laneChangedTo="0"/>
      <edge id=":3_0" sampledSeconds="69.27" traveltime="1.11" density="47.91" occupancy="23.95" waitingTime="0.00" speed="4.35" departed="0" arrived="0" entered="62" left="63" laneChangedFrom="0" laneChangedTo="0"/>
      <edge id=":4_0" sampledSeconds="35.01" traveltime="0.54" density="24.21" occupancy="12.10" waitingTime="0.00" speed="8.91" departed="0" arrived="0" entered="64" left="65" laneChangedFrom="0" laneChangedTo="0"/>
      <edge id=":m1_0" sampledSeconds="24.06" traveltime="0.83" density="11.06" occupancy="5.53" waitingTime="0.00" speed="8.74" departed="0" arrived="0" entered="29" left="29" laneChangedFrom="0" laneChangedTo="0"/>
      <edge id=":m1_1" sampledSeconds="14.27" traveltime="0.51" density="10.67" occupancy="5.33" waitingTime="0.00" speed="8.75" departed="0" arrived="0" entered="28" left="28" laneChangedFrom="0" laneChangedTo="0"/>
      <edge id=":m1_2" sampledSeconds="8.18" traveltime="0.27" density="9.08" occupancy="4.54" waitingTime="0.00" speed="11.01" departed="0" arrived="0" entered="30" left="30" laneChangedFrom="0" laneChangedTo="0"/>
      <edge id=":m2_0" sampledSeconds="19.12" traveltime="0.82" density="8.79" occupancy="4.39" waitingTime="0.00" speed="8.79" departed="0" arrived="0" entered="24" left="23" laneChangedFrom="0" laneChangedTo="0"/>
      <edge id=":m2_1" sampledSeconds="12.93" traveltime="0.40" density="9.66" occupancy="4.83" waitingTime="0.00" speed="11.04" departed="0" arrived="0" entered="32" left="32" laneChangedFrom="0" laneChangedTo="0"/>
      <edge id=":m2_2" sampledSeconds="7.56" traveltime="0.36" density="8.40" occupancy="4.20" waitingTime="0.00" speed="8.33" departed="0" arrived="0" entered="21" left="21" laneChangedFrom="0" laneChangedTo="0"/>
      <edge id=":m3_0" sampledSeconds="12.44" traveltime="0.65" density="5.72" occupancy="2.86" waitingTime="0.00" speed="11.07" departed="0" arrived="0" entered="19" left="19" laneChangedFrom="0" laneChangedTo="0"/>
      <edge id=":m3_1" sampledSeconds="7.67" traveltime="0.40" density="5.73" occupancy="2.87" waitingTime="0.00" speed="11.04" departed="0" arrived="0" entered="19" left="19" laneChangedFrom="0" laneChangedTo="0"/>
      <edge id=":m3_2" sampledSeconds="5.55" traveltime="0.31" density="6.16" occupancy="3.08" waitingTime="0.00" speed="9.74" departed="0" arrived="0" entered="18" left="18" laneChangedFrom="0" laneChangedTo="0"/>
      <edge id=":m4_0" sampledSeconds="16.93" traveltime="0.71" density="7.78" occupancy="3.89" waitingTime="0.00" speed="10.28" departed="0" arrived="0" entered="24" left="24" laneChangedFrom="0" laneChangedTo="0"/>
      <edge id=":m4_1" sampledSeconds="9.86" traveltime="0.41" density="7.37" occupancy="3.68" waitingTime="0.00" speed="10.86" departed="0" arrived="0" entered="24" left="24" laneChangedFrom="0" laneChangedTo="0"/>
      <edge id=":m4_2" sampledSeconds="6.31" traveltime="0.27" density="7.01" occupancy="3.50" waitingTime="0.00" speed="10.94" departed="0" arrived="0" entered="23" left="23" laneChangedFrom="0" laneChangedTo="0"/>
      <edge id="1fi" sampledSeconds="2525.54" traveltime="28.34" density="33.88" occupancy="16.94" waitingTime="0.12" speed="8.77" departed="29" arrived="17" entered="76" left="87" laneChangedFrom="0" laneChangedTo="0"/>
      <edge id="1o" sampledSeconds="3694.85" traveltime="49.02" density="25.20" occupancy="12.60" waitingTime="0.00" speed="9.97" departed="0" arrived="0" entered="73" left="77" laneChangedFrom="0" laneChangedTo="0"/>
      <edge id="1si" sampledSeconds="7737.59" traveltime="95.70" density="108.76" occupancy="18.13" waitingTime="165.94" speed="2.48" departed="0" arrived="0" entered="87" left="80" laneChangedFrom="0" laneChangedTo="0"/>
      <edge id="2fi" sampledSeconds="2273.78" traveltime="29.12" density="30.50" occupancy="15.25" waitingTime="0.13" speed="8.53" departed="29" arrived="25" entered="76" left="77" laneChangedFrom="0" laneChangedTo="0"/>