<?xml version="1.0"?>

<!-- generated on 04/02/10 11:42:15 by SUMO sumo Version dev-SVN-r8487
<configuration>

    <input>
        <net-file value="net.net.xml"/>
        <route-files value="input_routes.rou.xml"/>
        <additional-files value="input_additional.add.xml"/>
    </input>

    <time>
        <begin value="0"/>
        <end value="1000"/>
    </time>

    <report>
        <no-duration-log value="true"/>
        <no-step-log value="true"/>
    </report>

</configuration>
-->

<netstats>
    <interval begin="0.00" end="300.00" id="dump_300">
        <edge id="1fi" sampledSeconds="730.80" traveltime="29.84" density="9.80" occupancy="4.90" waitingTime="0.00" speed="8.33" departed="19" arrived="0" entered="10" left="19" laneChangedFrom="0" laneChangedTo="0"/>
        <edge id="1o" sampledSeconds="505.36" traveltime="45.94" density="3.45" occupancy="1.72" waitingTime="0.00" speed="10.64" departed="0" arrived="0" entered="11" left="11" laneChangedFrom="0" laneChangedTo="0"/>
        <edge id="1si" sampledSeconds="842.47" traveltime="47.26" density="11.84" occupancy="1.97" waitingTime="136.39" speed="5.02" departed="0" arrived="0" entered="19" left="10" laneChangedFrom="0" laneChangedTo="0"/>
        <edge id="2fi" sampledSeconds="780.76" traveltime="30.68" density="10.47" occupancy="5.24" waitingTime="0.00" speed="8.10" departed="20" arrived="2" entered="9" left="24" laneChangedFrom="0" laneChangedTo="0"/>
        <edge id="2o" sampledSeconds="550.38" traveltime="48.60" density="3.75" occupancy="1.88" waitingTime="0.00" speed="10.05" departed="0" arrived="0" entered="17" left="9" laneChangedFrom="0" laneChangedTo="0"/>
        <edge id="2si" sampledSeconds="814.58" traveltime="36.49" density="11.45" occupancy="1.91" waitingTime="113.06" speed="6.50" departed="0" arrived="0" entered="24" left="11" laneChangedFrom="0" laneChangedTo="0"/>
        <edge id="3fi" sampledSeconds="1184.99" traveltime="32.56" density="15.90" occupancy="7.95" waitingTime="0.00" speed="7.63" departed="40" arrived="0" entered="0" left="34" laneChangedFrom="0" laneChangedTo="0"/>
        <edge id="3o" sampledSeconds="90.38" traveltime="44.65" density="0.62" occupancy="0.31" waitingTime="0.00" speed="10.94" departed="0" arrived="0" entered="6" left="0" laneChangedFrom="0" laneChangedTo="0"/>
        <edge id="3si" sampledSeconds="1180.40" traveltime="36.90" density="16.59" occupancy="2.77" waitingTime="105.22" speed="6.43" departed="0" arrived="0" entered="34" left="30" laneChangedFrom="0" laneChangedTo="0"/>
        <edge id="4fi" sampledSeconds="204.31" traveltime="22.70" density="2.74" occupancy="1.37" waitingTime="0.00" speed="10.95" departed="0" arrived="0" entered="9" left="9" laneChangedFrom="0" laneChangedTo="0"/>
        <edge id="4o" sampledSeconds="694.87" traveltime="47.93" density="4.74" occupancy="2.37" waitingTime="0.00" speed="10.20" departed="0" arrived="0" entered="23" left="9" laneChangedFrom="0" laneChangedTo="0"/>
        <edge id="4si" sampledSeconds="218.20" traveltime="24.24" density="3.07" occupancy="0.51" waitingTime="53.62" speed="9.78" departed="0" arrived="0" entered="9" left="9" laneChangedFrom="0" laneChangedTo="0"/>
    </interval>
    <interval begin="300.00" end="600.00" id="dump_300">
        <edge id="1fi" sampledSeconds="1848.82" traveltime="27.66" density="24.80" occupancy="12.40" waitingTime="0.00" speed="8.98" departed="31" arrived="0" entered="35" left="70" laneChangedFrom="0" laneChangedTo="0"/>
        <edge id="1o" sampledSeconds="1968.85" traveltime="47.62" density="13.43" occupancy="6.72" waitingTime="0.00" speed="10.26" departed="0" arrived="0" entered="46" left="34" laneChangedFrom="0" laneChangedTo="0"/>
        <edge id="1si" sampledSeconds="5471.87" traveltime="83.08" density="76.91" occupancy="12.82" waitingTime="167.55" speed="2.85" departed="0" arrived="0" entered="70" left="54" laneChangedFrom="0" laneChangedTo="0"/>
        <edge id="2fi" sampledSeconds="1980.19" traveltime="29.02" density="26.56" occupancy="13.28" waitingTime="0.00" speed="8.56" departed="30" arrived="26" entered="66" left="67" laneChangedFrom="0" laneChangedTo="0"/>
        <edge id="2o" sampledSeconds="3523.18" traveltime="49.00" density="24.03" occupancy="12.02" waitingTime="0.00" speed="9.97" departed="0" arrived="0" entered="73" left="67" laneChangedFrom="0" laneChangedTo="0"/>
        <edge id="2si" sampledSeconds="3452.50" traveltime="51.37" density="48.53" occupancy="8.09" waitingTime="133.12" speed="4.62" departed="0" arrived="0" entered="67" left="69" laneChangedFrom="0" laneChangedTo="0"/>
        <edge id="3fi" sampledSeconds="1954.37" traveltime="31.12" density="26.22" occupancy="13.11" waitingTime="0.00" speed="7.99" departed="54" arrived="25" entered="33" left="60" laneChangedFrom="0" laneChangedTo="0"/>
        <edge id="3o" sampledSeconds="1790.47" traveltime="47.55" density="12.21" occupancy="6.11" waitingTime="0.00" speed="10.28" departed="0" arrived="0" entered="38" left="34" laneChangedFrom="0" laneChangedTo="0"/>
        <edge id="3si" sampledSeconds="2733.97" traveltime="46.34" density="38.43" occupancy="6.40" waitingTime="132.12" speed="5.12" departed="0" arrived="0" entered="60" left="52" laneChangedFrom="0" laneChangedTo="0"/>
        <edge id="4fi" sampledSeconds="1614.80" traveltime="22.71" density="21.66" occupancy="10.83" waitingTime="0.00" speed="10.94" departed="0" arrived="0" entered="75" left="67" laneChangedFrom="0" laneChangedTo="0"/>
        <edge id="4o" sampledSeconds="3448.62" traveltime="46.98" density="23.52" occupancy="11.76" waitingTime="0.00" speed="10.40" departed="0" arrived="0" entered="69" left="75" laneChangedFrom="0" laneChangedTo="0"/>
        <edge id="4si" sampledSeconds="2144.29" traveltime="33.43" density="30.14" occupancy="5.02" waitingTime="89.26" speed="7.09" departed="0" arrived="0" entered="67" left="56" laneChangedFrom="0" laneChangedTo="0"/>
    </interval>
    <interval begin="600.00" end="900.00" id="dump_300">
        <edge id="1fi" sampledSeconds="2511.51" traveltime="27.92" density="33.69" occupancy="16.84" waitingTime="0.00" speed="8.90" departed="30" arrived="17" entered="76" left="88" laneChangedFrom="0" laneChangedTo="0"/>
        <edge id="1o" sampledSeconds="3666.94" traveltime="49.64" density="25.01" occupancy="12.51" waitingTime="0.00" speed="9.84" departed="0" arrived="0" entered="73" left="76" laneChangedFrom="0" laneChangedTo="0"/>
        <edge id="1si" sampledSeconds="9532.41" traveltime="121.74" density="133.99" occupancy="22.33" waitingTime="176.12" speed="1.95" departed="0" arrived="0" entered="88" left="77" laneChangedFrom="0" laneChangedTo="0"/>
        <edge id="2fi" sampledSeconds="2191.74" traveltime="28.98" density="29.40" occupancy="14.70" waitingTime="0.00" speed="8.57" departed="29" arrived="25" entered="74" left="73" laneChangedFrom="0" laneChangedTo="0"/>
        <edge id="2o" sampledSeconds="3428.93" traveltime="48.33" density="23.39" occupancy="11.70" waitingTime="0.00" speed="10.11" departed="0" arrived="0" entered="69" left="73" laneChangedFrom="0" laneChangedTo="0"/>
        <edge id="2si" sampledSeconds="3965.76" traveltime="56.07" density="55.74" occupancy="9.29" waitingTime="142.90" speed="4.23" departed="0" arrived="0" entered="73" left="72" laneChangedFrom="0" laneChangedTo="0"/>
        <edge id="3fi" sampledSeconds="1710.41" traveltime="30.78" density="22.94" occupancy="11.47" waitingTime="0.00" speed="8.07" departed="43" arrived="52" entered="65" left="58" laneChangedFrom="0" laneChangedTo="0"/>
        <edge id="3o" sampledSeconds="3069.88" traveltime="48.37" density="20.94" occupancy="10.47" waitingTime="0.00" speed="10.10" departed="0" arrived="0" entered="65" left="64" laneChangedFrom="0" laneChangedTo="0"/>
        <edge id="3si" sampledSeconds="2997.48" traveltime="50.50" density="42.13" occupancy="7.02" waitingTime="146.02" speed="4.70" departed="0" arrived="0" entered="58" left="54" laneChangedFrom="0" laneChangedTo="0"/>
        <edge id="4fi" sampledSeconds="1542.25" traveltime="22.72" density="20.69" occupancy="10.34" waitingTime="0.00" speed="10.94" departed="0" arrived="0" entered="64" left="72" laneChangedFrom="0" laneChangedTo="0"/>
        <edge id="4o" sampledSeconds="3066.72" traveltime="47.39" density="20.92" occupancy="10.46" waitingTime="0.00" speed="10.31" departed="0" arrived="0" entered="68" left="64" laneChangedFrom="0" laneChangedTo="0"/>
        <edge id="4si" sampledSeconds="3384.00" traveltime="48.53" density="47.56" occupancy="7.93" waitingTime="130.50" speed="4.89" departed="0" arrived="0" entered="72" left="65" laneChangedFrom="0" laneChangedTo="0"/>
    </interval>
    <interval begin="900.00" end="1000.00" id="dump_300">
        <edge id="1fi" sampledSeconds="760.72" traveltime="27.69" density="30.61" occupancy="15.31" waitingTime="0.00" speed="8.98" departed="10" arrived="4" entered="21" left="30" laneChangedFrom="0" laneChangedTo="0"/>
        <edge id="1o" sampledSeconds="1113.00" traveltime="47.86" density="22.78" occupancy="11.39" waitingTime="0.00" speed="10.21" departed="0" arrived="0" entered="23" left="21" laneChangedFrom="0" laneChangedTo="0"/>
        <edge id="1si" sampledSeconds="4034.12" traveltime="145.78" density="170.11" occupancy="28.35" waitingTime="56.12" speed="1.63" departed="0" arrived="0" entered="30" left="25" laneChangedFrom="0" laneChangedTo="0"/>
        <edge id="2fi" sampledSeconds="721.82" traveltime="28.80" density="29.05" occupancy="14.52" waitingTime="0.00" speed="8.63" departed="11" arrived="9" entered="21" left="25" laneChangedFrom="0" laneChangedTo="0"/>
        <edge id="2o" sampledSeconds="1173.06" traveltime="47.86" density="24.01" occupancy="12.00" waitingTime="0.00" speed="10.21" departed="0" arrived="0" entered="24" left="21" laneChangedFrom="0" laneChangedTo="0"/>
        <edge id="2si" sampledSeconds="1742.19" traveltime="68.20" density="73.46" occupancy="12.24" waitingTime="52.46" speed="3.48" departed="0" arrived="0" entered="25" left="20" laneChangedFrom="0" laneChangedTo="0"/>
        <edge id="3fi" sampledSeconds="601.24" traveltime="30.76" density="24.19" occupancy="12.10" waitingTime="0.00" speed="8.08" departed="16" arrived="14" entered="18" left="18" laneChangedFrom="0" laneChangedTo="0"/>
        <edge id="3o" sampledSeconds="1016.19" traveltime="47.89" density="20.80" occupancy="10.40" waitingTime="0.00" speed="10.20" departed="0" arrived="0" entered="20" left="18" laneChangedFrom="0" laneChangedTo="0"/>
        <edge id="3si" sampledSeconds="870.79" traveltime="47.01" density="36.72" occupancy="6.12" waitingTime="41.57" speed="5.04" departed="0" arrived="0" entered="18" left="27" laneChangedFrom="0" laneChangedTo="0"/>
        <edge id="4fi" sampledSeconds="431.46" traveltime="22.71" density="17.36" occupancy="8.68" waitingTime="0.00" speed="10.94" departed="0" arrived="0" entered="19" left="19" laneChangedFrom="0" laneChangedTo="0"/>
        <edge id="4o" sampledSeconds="1023.90" traveltime="47.20" density="20.95" occupancy="10.48" waitingTime="0.00" speed="10.35" departed="0" arrived="0" entered="20" left="19" laneChangedFrom="0" laneChangedTo="0"/>
        <edge id="4si" sampledSeconds="846.65" traveltime="38.63" density="35.70" occupancy="5.95" waitingTime="33.31" speed="6.14" departed="0" arrived="0" entered="19" left="25" laneChangedFrom="0" laneChangedTo="0"/>
    </interval>
</netstats>
