<?xml version="1.0"?>

<!-- generated on 02/14/12 12:11:48 by SUMO sumo Version dev-SVN-r11888
<?xml version="1.0" encoding="UTF-8"?>

<configuration xmlns:xsi="http://www.w3.org/2001/XMLSchema-instance" xsi:noNamespaceSchemaLocation="http://sumo.sf.net/xsd/sumoConfiguration.xsd">

    <input>
        <net-file value="net.net.xml"/>
        <route-files value="input_routes.rou.xml"/>
        <additional-files value="input_additional.add.xml"/>
    </input>

    <time>
        <begin value="0"/>
        <end value="1000"/>
    </time>

    <report>
        <no-duration-log value="true"/>
        <no-step-log value="true"/>
    </report>

</configuration>
-->

<netstats>
    <interval begin="0.00" end="300.00" id="dump_300">
        <edge id="1fi" sampledSeconds="705.30" traveltime="29.88" density="9.46" occupancy="2.84" waitingTime="0.00" speed="8.32" departed="18" arrived="0" entered="11" left="19" laneChangedFrom="0" laneChangedTo="0"/>
        <edge id="1o" sampledSeconds="508.44" traveltime="45.94" density="3.47" occupancy="1.04" waitingTime="0.00" speed="10.64" departed="0" arrived="0" entered="11" left="11" laneChangedFrom="0" laneChangedTo="0"/>
        <edge id="1si" sampledSeconds="884.95" traveltime="49.56" density="12.44" occupancy="1.24" waitingTime="406.00" speed="4.79" departed="0" arrived="0" entered="19" left="10" laneChangedFrom="0" laneChangedTo="0"/>
        <edge id="2fi" sampledSeconds="790.87" traveltime="30.49" density="10.61" occupancy="3.18" waitingTime="0.00" speed="8.15" departed="20" arrived="0" entered="9" left="24" laneChangedFrom="0" laneChangedTo="0"/>
        <edge id="2o" sampledSeconds="548.88" traveltime="48.86" density="3.74" occupancy="1.12" waitingTime="0.00" speed="10.00" departed="0" arrived="0" entered="17" left="9" laneChangedFrom="0" laneChangedTo="0"/>
        <edge id="2si" sampledSeconds="835.51" traveltime="37.66" density="11.74" occupancy="1.17" waitingTime="311.00" speed="6.30" departed="0" arrived="0" entered="24" left="11" laneChangedFrom="0" laneChangedTo="0"/>
        <edge id="3fi" sampledSeconds="1174.36" traveltime="32.17" density="15.75" occupancy="4.73" waitingTime="1.00" speed="7.72" departed="40" arrived="0" entered="0" left="34" laneChangedFrom="0" laneChangedTo="0"/>
        <edge id="3o" sampledSeconds="86.46" traveltime="44.80" density="0.59" occupancy="0.18" waitingTime="0.00" speed="10.91" departed="0" arrived="0" entered="6" left="0" laneChangedFrom="0" laneChangedTo="0"/>
        <edge id="3si" sampledSeconds="1240.55" traveltime="38.04" density="17.44" occupancy="1.74" waitingTime="424.00" speed="6.23" departed="0" arrived="0" entered="34" left="30" laneChangedFrom="0" laneChangedTo="0"/>
        <edge id="4fi" sampledSeconds="207.61" traveltime="22.79" density="2.78" occupancy="0.84" waitingTime="0.00" speed="10.90" departed="0" arrived="0" entered="9" left="9" laneChangedFrom="0" laneChangedTo="0"/>
        <edge id="4o" sampledSeconds="693.35" traveltime="47.45" density="4.73" occupancy="1.42" waitingTime="0.00" speed="10.30" departed="0" arrived="0" entered="23" left="9" laneChangedFrom="0" laneChangedTo="0"/>
        <edge id="4si" sampledSeconds="281.57" traveltime="31.03" density="3.96" occupancy="0.40" waitingTime="87.00" speed="7.64" departed="0" arrived="0" entered="9" left="8" laneChangedFrom="0" laneChangedTo="0"/>
    </interval>
    <interval begin="300.00" end="600.00" id="dump_300">
        <edge id="1fi" sampledSeconds="1833.84" traveltime="27.39" density="24.60" occupancy="7.38" waitingTime="0.00" speed="9.07" departed="32" arrived="0" entered="33" left="68" laneChangedFrom="0" laneChangedTo="0"/>
        <edge id="1o" sampledSeconds="1932.24" traveltime="47.32" density="13.18" occupancy="3.95" waitingTime="0.00" speed="10.33" departed="0" arrived="0" entered="46" left="33" laneChangedFrom="0" laneChangedTo="0"/>
        <edge id="1si" sampledSeconds="5699.22" traveltime="89.27" density="80.11" occupancy="8.01" waitingTime="3193.00" speed="2.66" departed="0" arrived="0" entered="68" left="51" laneChangedFrom="0" laneChangedTo="0"/>
        <edge id="2fi" sampledSeconds="2602.40" traveltime="28.05" density="34.91" occupancy="10.47" waitingTime="0.00" speed="8.86" departed="30" arrived="1" entered="64" left="64" laneChangedFrom="0" laneChangedTo="0"/>
        <edge id="2o" sampledSeconds="3347.70" traveltime="48.51" density="22.84" occupancy="6.85" waitingTime="0.00" speed="10.07" departed="0" arrived="0" entered="69" left="64" laneChangedFrom="0" laneChangedTo="0"/>
        <edge id="2si" sampledSeconds="3507.16" traveltime="53.20" density="49.30" occupancy="4.93" waitingTime="1524.00" speed="4.46" departed="0" arrived="0" entered="64" left="67" laneChangedFrom="0" laneChangedTo="0"/>
        <edge id="3fi" sampledSeconds="2390.19" traveltime="29.81" density="32.06" occupancy="9.62" waitingTime="0.00" speed="8.34" departed="50" arrived="2" entered="31" left="56" laneChangedFrom="0" laneChangedTo="0"/>
        <edge id="3o" sampledSeconds="1755.92" traveltime="47.94" density="11.98" occupancy="3.59" waitingTime="0.00" speed="10.19" departed="0" arrived="0" entered="37" left="32" laneChangedFrom="0" laneChangedTo="0"/>
        <edge id="3si" sampledSeconds="2797.21" traveltime="49.83" density="39.32" occupancy="3.93" waitingTime="1240.00" speed="4.76" departed="0" arrived="0" entered="56" left="49" laneChangedFrom="0" laneChangedTo="0"/>
        <edge id="4fi" sampledSeconds="1551.56" traveltime="22.78" density="20.81" occupancy="6.24" waitingTime="0.00" speed="10.91" departed="0" arrived="0" entered="70" left="64" laneChangedFrom="0" laneChangedTo="0"/>
        <edge id="4o" sampledSeconds="3259.81" traveltime="46.81" density="22.24" occupancy="6.67" waitingTime="0.00" speed="10.44" departed="0" arrived="0" entered="65" left="70" laneChangedFrom="0" laneChangedTo="0"/>
        <edge id="4si" sampledSeconds="2396.80" traveltime="38.01" density="33.69" occupancy="3.37" waitingTime="775.00" speed="6.24" departed="0" arrived="0" entered="63" left="57" laneChangedFrom="0" laneChangedTo="0"/>
    </interval>
    <interval begin="600.00" end="900.00" id="dump_300">
        <edge id="1fi" sampledSeconds="2791.51" traveltime="27.68" density="37.44" occupancy="11.23" waitingTime="0.00" speed="8.98" departed="28" arrived="0" entered="73" left="87" laneChangedFrom="0" laneChangedTo="0"/>
        <edge id="1o" sampledSeconds="3481.88" traveltime="49.23" density="23.75" occupancy="7.13" waitingTime="0.00" speed="9.93" departed="0" arrived="0" entered="69" left="73" laneChangedFrom="0" laneChangedTo="0"/>
        <edge id="1si" sampledSeconds="10487.36" traveltime="134.88" density="147.41" occupancy="14.74" waitingTime="5925.00" speed="1.76" departed="0" arrived="0" entered="87" left="76" laneChangedFrom="0" laneChangedTo="0"/>
        <edge id="2fi" sampledSeconds="2710.23" traveltime="27.98" density="36.35" occupancy="10.91" waitingTime="0.00" speed="8.88" departed="29" arrived="11" entered="67" left="70" laneChangedFrom="0" laneChangedTo="0"/>
        <edge id="2o" sampledSeconds="3201.92" traveltime="48.42" density="21.84" occupancy="6.55" waitingTime="0.00" speed="10.09" departed="0" arrived="0" entered="65" left="68" laneChangedFrom="0" laneChangedTo="0"/>
        <edge id="2si" sampledSeconds="4428.85" traveltime="66.56" density="62.25" occupancy="6.23" waitingTime="2263.00" speed="3.56" departed="0" arrived="0" entered="69" left="64" laneChangedFrom="0" laneChangedTo="0"/>
        <edge id="3fi" sampledSeconds="2680.16" traveltime="28.14" density="35.95" occupancy="10.79" waitingTime="0.00" speed="8.83" departed="36" arrived="10" entered="59" left="48" laneChangedFrom="0" laneChangedTo="0"/>
        <edge id="3o" sampledSeconds="2784.29" traveltime="48.65" density="18.99" occupancy="5.70" waitingTime="0.00" speed="10.04" departed="0" arrived="0" entered="57" left="58" laneChangedFrom="0" laneChangedTo="0"/>
        <edge id="3si" sampledSeconds="2703.86" traveltime="55.45" density="38.00" occupancy="3.80" waitingTime="1334.00" speed="4.28" departed="0" arrived="0" entered="48" left="45" laneChangedFrom="0" laneChangedTo="0"/>
        <edge id="4fi" sampledSeconds="1376.67" traveltime="22.78" density="18.47" occupancy="5.54" waitingTime="0.00" speed="10.91" departed="0" arrived="0" entered="57" left="63" laneChangedFrom="0" laneChangedTo="0"/>
        <edge id="4o" sampledSeconds="2637.05" traveltime="47.27" density="17.99" occupancy="5.40" waitingTime="0.00" speed="10.34" departed="0" arrived="0" entered="56" left="57" laneChangedFrom="0" laneChangedTo="0"/>
        <edge id="4si" sampledSeconds="2744.13" traveltime="45.09" density="38.57" occupancy="3.86" waitingTime="1112.00" speed="5.26" departed="0" arrived="0" entered="63" left="55" laneChangedFrom="0" laneChangedTo="0"/>
    </interval>
    <interval begin="900.00" end="1000.00" id="dump_300">
        <edge id="1fi" sampledSeconds="889.21" traveltime="27.88" density="35.78" occupancy="10.73" waitingTime="0.00" speed="8.91" departed="12" arrived="0" entered="19" left="29" laneChangedFrom="0" laneChangedTo="0"/>
        <edge id="1o" sampledSeconds="1023.96" traveltime="47.78" density="20.95" occupancy="6.29" waitingTime="0.00" speed="10.23" departed="0" arrived="0" entered="21" left="19" laneChangedFrom="0" laneChangedTo="0"/>
        <edge id="1si" sampledSeconds="4292.04" traveltime="166.16" density="180.98" occupancy="18.10" waitingTime="2324.00" speed="1.43" departed="0" arrived="0" entered="29" left="21" laneChangedFrom="0" laneChangedTo="0"/>
        <edge id="2fi" sampledSeconds="898.92" traveltime="28.05" density="36.17" occupancy="10.85" waitingTime="0.00" speed="8.86" departed="11" arrived="0" entered="20" left="21" laneChangedFrom="0" laneChangedTo="0"/>
        <edge id="2o" sampledSeconds="1044.69" traveltime="47.50" density="21.38" occupancy="6.41" waitingTime="0.00" speed="10.29" departed="0" arrived="0" entered="21" left="19" laneChangedFrom="0" laneChangedTo="0"/>
        <edge id="2si" sampledSeconds="1954.01" traveltime="84.21" density="82.40" occupancy="8.24" waitingTime="1102.00" speed="2.82" departed="0" arrived="0" entered="22" left="19" laneChangedFrom="0" laneChangedTo="0"/>
        <edge id="3fi" sampledSeconds="846.86" traveltime="29.04" density="34.08" occupancy="10.22" waitingTime="0.00" speed="8.56" departed="12" arrived="4" entered="16" left="13" laneChangedFrom="0" laneChangedTo="0"/>
        <edge id="3o" sampledSeconds="824.10" traveltime="48.21" density="16.86" occupancy="5.06" waitingTime="0.00" speed="10.14" departed="0" arrived="0" entered="16" left="17" laneChangedFrom="0" laneChangedTo="0"/>
        <edge id="3si" sampledSeconds="855.73" traveltime="57.27" density="36.08" occupancy="3.61" waitingTime="401.00" speed="4.14" departed="0" arrived="0" entered="13" left="21" laneChangedFrom="0" laneChangedTo="0"/>
        <edge id="4fi" sampledSeconds="346.08" traveltime="22.79" density="13.93" occupancy="4.18" waitingTime="0.00" speed="10.90" departed="0" arrived="0" entered="15" left="15" laneChangedFrom="0" laneChangedTo="0"/>
        <edge id="4o" sampledSeconds="874.54" traveltime="47.07" density="17.90" occupancy="5.37" waitingTime="0.00" speed="10.38" departed="0" arrived="0" entered="18" left="15" laneChangedFrom="0" laneChangedTo="0"/>
        <edge id="4si" sampledSeconds="740.00" traveltime="41.15" density="31.20" occupancy="3.12" waitingTime="231.00" speed="5.76" departed="0" arrived="0" entered="16" left="22" laneChangedFrom="0" laneChangedTo="0"/>
    </interval>
</netstats>
