<?xml version="1.0"?>

<!-- generated on Thu Feb  7 11:07:03 2013 by SUMO sumo Version dev-SVN-r13280
<?xml version="1.0" encoding="UTF-8"?>

<configuration xmlns:xsi="http://www.w3.org/2001/XMLSchema-instance" xsi:noNamespaceSchemaLocation="http://sumo.sf.net/xsd/sumoConfiguration.xsd">

    <input>
        <net-file value="net.net.xml"/>
        <route-files value="input_routes.rou.xml"/>
        <additional-files value="input_additional.add.xml"/>
    </input>

    <time>
        <begin value="0"/>
        <end value="1000"/>
    </time>

    <report>
        <no-duration-log value="true"/>
        <no-step-log value="true"/>
    </report>

</configuration>
-->

<netstats>
    <interval begin="0.00" end="60.00" id="dump_60">
        <edge id="1fi" sampledSeconds="0.00" departed="0" arrived="0" entered="0" left="0" laneChangedFrom="0" laneChangedTo="0"/>
        <edge id="1o" sampledSeconds="0.00" departed="0" arrived="0" entered="0" left="0" laneChangedFrom="0" laneChangedTo="0"/>
        <edge id="1si" sampledSeconds="0.00" departed="0" arrived="0" entered="0" left="0" laneChangedFrom="0" laneChangedTo="0"/>
        <edge id="2fi" sampledSeconds="0.00" departed="0" arrived="0" entered="0" left="0" laneChangedFrom="0" laneChangedTo="0"/>
        <edge id="2o" sampledSeconds="0.00" departed="0" arrived="0" entered="0" left="0" laneChangedFrom="0" laneChangedTo="0"/>
        <edge id="2si" sampledSeconds="0.00" departed="0" arrived="0" entered="0" left="0" laneChangedFrom="0" laneChangedTo="0"/>
        <edge id="3fi" sampledSeconds="0.00" departed="0" arrived="0" entered="0" left="0" laneChangedFrom="0" laneChangedTo="0"/>
        <edge id="3o" sampledSeconds="0.00" departed="0" arrived="0" entered="0" left="0" laneChangedFrom="0" laneChangedTo="0"/>
        <edge id="3si" sampledSeconds="0.00" departed="0" arrived="0" entered="0" left="0" laneChangedFrom="0" laneChangedTo="0"/>
        <edge id="4fi" sampledSeconds="0.00" departed="0" arrived="0" entered="0" left="0" laneChangedFrom="0" laneChangedTo="0"/>
        <edge id="4o" sampledSeconds="0.00" departed="0" arrived="0" entered="0" left="0" laneChangedFrom="0" laneChangedTo="0"/>
        <edge id="4si" sampledSeconds="0.00" departed="0" arrived="0" entered="0" left="0" laneChangedFrom="0" laneChangedTo="0"/>
    </interval>
    <interval begin="60.00" end="120.00" id="dump_60">
        <edge id="1fi" sampledSeconds="28.00" traveltime="50.12" density="1.88" occupancy="0.56" waitingTime="0.00" speed="4.96" departed="2" arrived="0" entered="0" left="0" laneChangedFrom="0" laneChangedTo="0"/>
        <edge id="1o" sampledSeconds="0.00" departed="0" arrived="0" entered="0" left="0" laneChangedFrom="0" laneChangedTo="0"/>
        <edge id="1si" sampledSeconds="0.00" departed="0" arrived="0" entered="0" left="0" laneChangedFrom="0" laneChangedTo="0"/>
        <edge id="2fi" sampledSeconds="28.00" traveltime="48.68" density="1.88" occupancy="0.56" waitingTime="0.00" speed="5.11" departed="2" arrived="0" entered="0" left="0" laneChangedFrom="0" laneChangedTo="0"/>
        <edge id="2o" sampledSeconds="0.00" departed="0" arrived="0" entered="0" left="0" laneChangedFrom="0" laneChangedTo="0"/>
        <edge id="2si" sampledSeconds="0.00" departed="0" arrived="0" entered="0" left="0" laneChangedFrom="0" laneChangedTo="0"/>
        <edge id="3fi" sampledSeconds="48.00" traveltime="52.35" density="3.22" occupancy="0.97" waitingTime="0.00" speed="4.75" departed="4" arrived="0" entered="0" left="0" laneChangedFrom="0" laneChangedTo="0"/>
        <edge id="3o" sampledSeconds="0.00" departed="0" arrived="0" entered="0" left="0" laneChangedFrom="0" laneChangedTo="0"/>
        <edge id="3si" sampledSeconds="0.00" departed="0" arrived="0" entered="0" left="0" laneChangedFrom="0" laneChangedTo="0"/>
        <edge id="4fi" sampledSeconds="0.00" departed="0" arrived="0" entered="0" left="0" laneChangedFrom="0" laneChangedTo="0"/>
        <edge id="4o" sampledSeconds="0.00" departed="0" arrived="0" entered="0" left="0" laneChangedFrom="0" laneChangedTo="0"/>
        <edge id="4si" sampledSeconds="0.00" departed="0" arrived="0" entered="0" left="0" laneChangedFrom="0" laneChangedTo="0"/>
    </interval>
    <interval begin="120.00" end="180.00" id="dump_60">
        <edge id="1fi" sampledSeconds="187.03" traveltime="31.98" density="12.54" occupancy="3.76" waitingTime="0.00" speed="7.77" departed="6" arrived="0" entered="0" left="5" laneChangedFrom="0" laneChangedTo="0"/>
        <edge id="1o" sampledSeconds="46.10" traveltime="44.68" density="1.57" occupancy="0.47" waitingTime="0.00" speed="10.94" departed="0" arrived="0" entered="2" left="0" laneChangedFrom="0" laneChangedTo="0"/>
        <edge id="1si" sampledSeconds="83.37" traveltime="18.95" density="5.86" occupancy="0.59" waitingTime="0.00" speed="12.52" departed="0" arrived="0" entered="5" left="3" laneChangedFrom="0" laneChangedTo="0"/>
        <edge id="2fi" sampledSeconds="184.98" traveltime="31.30" density="12.41" occupancy="3.72" waitingTime="0.00" speed="7.94" departed="6" arrived="0" entered="0" left="5" laneChangedFrom="0" laneChangedTo="0"/>
        <edge id="2o" sampledSeconds="0.00" departed="0" arrived="0" entered="0" left="0" laneChangedFrom="0" laneChangedTo="0"/>
        <edge id="2si" sampledSeconds="89.06" traveltime="20.39" density="6.26" occupancy="0.63" waitingTime="8.00" speed="11.63" departed="0" arrived="0" entered="5" left="2" laneChangedFrom="0" laneChangedTo="0"/>
        <edge id="3fi" sampledSeconds="366.97" traveltime="31.88" density="24.61" occupancy="7.38" waitingTime="1.00" speed="7.79" departed="12" arrived="0" entered="0" left="10" laneChangedFrom="0" laneChangedTo="0"/>
        <edge id="3o" sampledSeconds="0.00" departed="0" arrived="0" entered="0" left="0" laneChangedFrom="0" laneChangedTo="0"/>
        <edge id="3si" sampledSeconds="252.48" traveltime="31.31" density="17.74" occupancy="1.77" waitingTime="85.00" speed="7.57" departed="0" arrived="0" entered="10" left="0" laneChangedFrom="0" laneChangedTo="0"/>
        <edge id="4fi" sampledSeconds="0.00" departed="0" arrived="0" entered="0" left="0" laneChangedFrom="0" laneChangedTo="0"/>
        <edge id="4o" sampledSeconds="46.84" traveltime="46.20" density="1.60" occupancy="0.48" waitingTime="0.00" speed="10.58" departed="0" arrived="0" entered="3" left="0" laneChangedFrom="0" laneChangedTo="0"/>
        <edge id="4si" sampledSeconds="0.00" departed="0" arrived="0" entered="0" left="0" laneChangedFrom="0" laneChangedTo="0"/>
    </interval>
    <interval begin="180.00" end="240.00" id="dump_60">
        <edge id="1fi" sampledSeconds="242.16" traveltime="30.03" density="16.24" occupancy="4.87" waitingTime="0.00" speed="8.27" departed="6" arrived="0" entered="2" left="8" laneChangedFrom="0" laneChangedTo="0"/>
        <edge id="1o" sampledSeconds="55.08" traveltime="48.34" density="1.88" occupancy="0.56" waitingTime="0.00" speed="10.11" departed="0" arrived="0" entered="3" left="2" laneChangedFrom="0" laneChangedTo="0"/>
        <edge id="1si" sampledSeconds="325.57" traveltime="46.68" density="22.88" occupancy="2.29" waitingTime="138.00" speed="5.08" departed="0" arrived="0" entered="8" left="2" laneChangedFrom="0" laneChangedTo="0"/>
        <edge id="2fi" sampledSeconds="193.23" traveltime="31.86" density="12.96" occupancy="3.89" waitingTime="0.00" speed="7.80" departed="6" arrived="0" entered="2" left="6" laneChangedFrom="0" laneChangedTo="0"/>
        <edge id="2o" sampledSeconds="307.06" traveltime="47.59" density="10.47" occupancy="3.14" waitingTime="0.00" speed="10.27" departed="0" arrived="0" entered="7" left="3" laneChangedFrom="0" laneChangedTo="0"/>
        <edge id="2si" sampledSeconds="349.02" traveltime="59.05" density="24.53" occupancy="2.45" waitingTime="172.00" speed="4.02" departed="0" arrived="0" entered="6" left="5" laneChangedFrom="0" laneChangedTo="0"/>
        <edge id="3fi" sampledSeconds="380.05" traveltime="31.45" density="25.49" occupancy="7.65" waitingTime="0.00" speed="7.90" departed="12" arrived="0" entered="0" left="12" laneChangedFrom="0" laneChangedTo="0"/>
        <edge id="3o" sampledSeconds="0.00" departed="0" arrived="0" entered="0" left="0" laneChangedFrom="0" laneChangedTo="0"/>
        <edge id="3si" sampledSeconds="348.00" traveltime="28.28" density="24.46" occupancy="2.45" waitingTime="61.00" speed="8.39" departed="0" arrived="0" entered="12" left="13" laneChangedFrom="0" laneChangedTo="0"/>
        <edge id="4fi" sampledSeconds="72.91" traveltime="22.74" density="4.89" occupancy="1.47" waitingTime="0.00" speed="10.93" departed="0" arrived="0" entered="6" left="2" laneChangedFrom="0" laneChangedTo="0"/>
        <edge id="4o" sampledSeconds="351.96" traveltime="45.90" density="12.00" occupancy="3.60" waitingTime="0.00" speed="10.65" departed="0" arrived="0" entered="6" left="6" laneChangedFrom="0" laneChangedTo="0"/>
        <edge id="4si" sampledSeconds="22.06" traveltime="17.96" density="1.55" occupancy="0.16" waitingTime="0.00" speed="13.21" departed="0" arrived="0" entered="2" left="0" laneChangedFrom="0" laneChangedTo="0"/>
    </interval>
    <interval begin="240.00" end="300.00" id="dump_60">
        <edge id="1fi" sampledSeconds="251.00" traveltime="26.89" density="16.83" occupancy="5.05" waitingTime="0.00" speed="9.24" departed="5" arrived="0" entered="9" left="6" laneChangedFrom="0" laneChangedTo="0"/>
        <edge id="1o" sampledSeconds="406.86" traveltime="45.73" density="13.88" occupancy="4.16" waitingTime="0.00" speed="10.68" departed="0" arrived="0" entered="6" left="9" laneChangedFrom="0" laneChangedTo="0"/>
        <edge id="1si" sampledSeconds="473.16" traveltime="72.74" density="33.25" occupancy="3.33" waitingTime="266.00" speed="3.26" departed="0" arrived="0" entered="6" left="5" laneChangedFrom="0" laneChangedTo="0"/>
        <edge id="2fi" sampledSeconds="378.21" traveltime="27.91" density="25.37" occupancy="7.61" waitingTime="0.00" speed="8.90" departed="6" arrived="0" entered="7" left="13" laneChangedFrom="0" laneChangedTo="0"/>
        <edge id="2o" sampledSeconds="238.20" traveltime="50.09" density="8.12" occupancy="2.44" waitingTime="0.00" speed="9.75" departed="0" arrived="0" entered="10" left="6" laneChangedFrom="0" laneChangedTo="0"/>
        <edge id="2si" sampledSeconds="408.82" traveltime="33.72" density="28.73" occupancy="2.87" waitingTime="134.00" speed="7.03" departed="0" arrived="0" entered="13" left="4" laneChangedFrom="0" laneChangedTo="0"/>
        <edge id="3fi" sampledSeconds="377.31" traveltime="31.42" density="25.31" occupancy="7.59" waitingTime="0.00" speed="7.91" departed="12" arrived="0" entered="0" left="12" laneChangedFrom="0" laneChangedTo="0"/>
        <edge id="3o" sampledSeconds="91.41" traveltime="44.70" density="3.12" occupancy="0.94" waitingTime="0.00" speed="10.93" departed="0" arrived="0" entered="6" left="0" laneChangedFrom="0" laneChangedTo="0"/>
        <edge id="3si" sampledSeconds="636.57" traveltime="51.69" density="44.74" occupancy="4.47" waitingTime="272.00" speed="4.59" departed="0" arrived="0" entered="12" left="18" laneChangedFrom="0" laneChangedTo="0"/>
        <edge id="4fi" sampledSeconds="134.45" traveltime="22.78" density="9.02" occupancy="2.71" waitingTime="0.00" speed="10.91" departed="0" arrived="0" entered="3" left="7" laneChangedFrom="0" laneChangedTo="0"/>
        <edge id="4o" sampledSeconds="302.22" traveltime="48.68" density="10.31" occupancy="3.09" waitingTime="0.00" speed="10.04" departed="0" arrived="0" entered="14" left="3" laneChangedFrom="0" laneChangedTo="0"/>
        <edge id="4si" sampledSeconds="259.90" traveltime="33.12" density="18.27" occupancy="1.83" waitingTime="92.00" speed="7.16" departed="0" arrived="0" entered="7" left="8" laneChangedFrom="0" laneChangedTo="0"/>
    </interval>
    <interval begin="300.00" end="360.00" id="dump_60">
        <edge id="1fi" sampledSeconds="335.30" traveltime="28.50" density="22.49" occupancy="6.75" waitingTime="0.00" speed="8.72" departed="7" arrived="0" entered="0" left="15" laneChangedFrom="0" laneChangedTo="0"/>
        <edge id="1o" sampledSeconds="242.94" traveltime="47.07" density="8.29" occupancy="2.49" waitingTime="0.00" speed="10.38" departed="0" arrived="0" entered="9" left="0" laneChangedFrom="0" laneChangedTo="0"/>
        <edge id="1si" sampledSeconds="782.55" traveltime="53.14" density="55.00" occupancy="5.50" waitingTime="329.00" speed="4.46" departed="0" arrived="0" entered="15" left="14" laneChangedFrom="0" laneChangedTo="0"/>
        <edge id="2fi" sampledSeconds="408.08" traveltime="27.91" density="27.37" occupancy="8.21" waitingTime="0.00" speed="8.90" departed="5" arrived="2" entered="11" left="11" laneChangedFrom="0" laneChangedTo="0"/>
        <edge id="2o" sampledSeconds="700.19" traveltime="45.57" density="23.88" occupancy="7.16" waitingTime="0.00" speed="10.72" departed="0" arrived="0" entered="13" left="11" laneChangedFrom="0" laneChangedTo="0"/>
        <edge id="2si" sampledSeconds="486.82" traveltime="60.35" density="34.21" occupancy="3.42" waitingTime="216.00" speed="3.93" departed="0" arrived="0" entered="10" left="16" laneChangedFrom="0" laneChangedTo="0"/>
        <edge id="3fi" sampledSeconds="447.57" traveltime="29.30" density="30.02" occupancy="9.01" waitingTime="0.00" speed="8.48" departed="10" arrived="4" entered="6" left="11" laneChangedFrom="0" laneChangedTo="0"/>
        <edge id="3o" sampledSeconds="192.02" traveltime="48.10" density="6.55" occupancy="1.96" waitingTime="0.00" speed="10.16" departed="0" arrived="0" entered="0" left="6" laneChangedFrom="0" laneChangedTo="0"/>
        <edge id="3si" sampledSeconds="541.81" traveltime="48.64" density="38.08" occupancy="3.81" waitingTime="298.00" speed="4.88" departed="0" arrived="0" entered="11" left="0" laneChangedFrom="0" laneChangedTo="0"/>
        <edge id="4fi" sampledSeconds="311.99" traveltime="22.77" density="20.93" occupancy="6.28" waitingTime="0.00" speed="10.91" departed="0" arrived="0" entered="14" left="11" laneChangedFrom="0" laneChangedTo="0"/>
        <edge id="4o" sampledSeconds="617.10" traveltime="46.83" density="21.05" occupancy="6.31" waitingTime="0.00" speed="10.43" departed="0" arrived="0" entered="12" left="14" laneChangedFrom="0" laneChangedTo="0"/>
        <edge id="4si" sampledSeconds="168.47" traveltime="26.43" density="11.84" occupancy="1.18" waitingTime="26.00" speed="8.97" departed="0" arrived="0" entered="11" left="1" laneChangedFrom="0" laneChangedTo="0"/>
    </interval>
    <interval begin="360.00" end="420.00" id="dump_60">
        <edge id="1fi" sampledSeconds="383.28" traveltime="26.42" density="25.71" occupancy="7.71" waitingTime="0.00" speed="9.40" departed="6" arrived="0" entered="9" left="13" laneChangedFrom="0" laneChangedTo="0"/>
        <edge id="1o" sampledSeconds="181.73" traveltime="45.51" density="6.20" occupancy="1.86" waitingTime="0.00" speed="10.74" departed="0" arrived="0" entered="3" left="9" laneChangedFrom="0" laneChangedTo="0"/>
        <edge id="1si" sampledSeconds="897.02" traveltime="76.67" density="63.04" occupancy="6.30" waitingTime="535.00" speed="3.09" departed="0" arrived="0" entered="13" left="6" laneChangedFrom="0" laneChangedTo="0"/>
        <edge id="2fi" sampledSeconds="527.66" traveltime="28.14" density="35.39" occupancy="10.62" waitingTime="0.00" speed="8.83" departed="7" arrived="9" entered="12" left="11" laneChangedFrom="0" laneChangedTo="0"/>
        <edge id="2o" sampledSeconds="628.59" traveltime="50.47" density="21.44" occupancy="6.43" waitingTime="0.00" speed="9.68" departed="0" arrived="0" entered="15" left="12" laneChangedFrom="0" laneChangedTo="0"/>
        <edge id="2si" sampledSeconds="864.62" traveltime="55.92" density="60.76" occupancy="6.08" waitingTime="391.00" speed="4.24" departed="0" arrived="0" entered="12" left="11" laneChangedFrom="0" laneChangedTo="0"/>
        <edge id="3fi" sampledSeconds="447.30" traveltime="31.42" density="30.00" occupancy="9.00" waitingTime="0.00" speed="7.91" departed="13" arrived="2" entered="2" left="12" laneChangedFrom="0" laneChangedTo="0"/>
        <edge id="3o" sampledSeconds="375.14" traveltime="45.26" density="12.80" occupancy="3.84" waitingTime="0.00" speed="10.80" departed="0" arrived="0" entered="9" left="2" laneChangedFrom="0" laneChangedTo="0"/>
        <edge id="3si" sampledSeconds="467.03" traveltime="41.15" density="32.82" occupancy="3.28" waitingTime="124.00" speed="5.76" departed="0" arrived="0" entered="12" left="14" laneChangedFrom="0" laneChangedTo="0"/>
        <edge id="4fi" sampledSeconds="268.37" traveltime="22.77" density="18.00" occupancy="5.40" waitingTime="0.00" speed="10.92" departed="0" arrived="0" entered="14" left="10" laneChangedFrom="0" laneChangedTo="0"/>
        <edge id="4o" sampledSeconds="647.77" traveltime="46.33" density="22.09" occupancy="6.63" waitingTime="0.00" speed="10.55" departed="0" arrived="0" entered="11" left="15" laneChangedFrom="0" laneChangedTo="0"/>
        <edge id="4si" sampledSeconds="417.04" traveltime="29.35" density="29.31" occupancy="2.93" waitingTime="76.00" speed="8.08" departed="0" arrived="0" entered="10" left="14" laneChangedFrom="0" laneChangedTo="0"/>
    </interval>
    <interval begin="420.00" end="480.00" id="dump_60">
        <edge id="1fi" sampledSeconds="251.89" traveltime="26.94" density="16.89" occupancy="5.07" waitingTime="0.00" speed="9.23" departed="5" arrived="0" entered="7" left="8" laneChangedFrom="0" laneChangedTo="0"/>
        <edge id="1o" sampledSeconds="433.87" traveltime="47.57" density="14.80" occupancy="4.44" waitingTime="0.00" speed="10.27" departed="0" arrived="0" entered="11" left="7" laneChangedFrom="0" laneChangedTo="0"/>
        <edge id="1si" sampledSeconds="944.94" traveltime="118.42" density="66.41" occupancy="6.64" waitingTime="511.00" speed="2.00" departed="0" arrived="0" entered="8" left="8" laneChangedFrom="0" laneChangedTo="0"/>
        <edge id="2fi" sampledSeconds="559.18" traveltime="27.41" density="37.50" occupancy="11.25" waitingTime="0.00" speed="9.07" departed="3" arrived="0" entered="19" left="19" laneChangedFrom="0" laneChangedTo="0"/>
        <edge id="2o" sampledSeconds="717.11" traveltime="48.84" density="24.46" occupancy="7.34" waitingTime="0.00" speed="10.00" departed="0" arrived="0" entered="15" left="19" laneChangedFrom="0" laneChangedTo="0"/>
        <edge id="2si" sampledSeconds="542.92" traveltime="36.93" density="38.16" occupancy="3.82" waitingTime="194.00" speed="6.42" departed="0" arrived="0" entered="19" left="8" laneChangedFrom="0" laneChangedTo="0"/>
        <edge id="3fi" sampledSeconds="526.27" traveltime="28.51" density="35.30" occupancy="10.59" waitingTime="0.00" speed="8.72" departed="11" arrived="9" entered="7" left="10" laneChangedFrom="0" laneChangedTo="0"/>
        <edge id="3o" sampledSeconds="282.93" traveltime="50.23" density="9.65" occupancy="2.90" waitingTime="0.00" speed="9.73" departed="0" arrived="0" entered="10" left="7" laneChangedFrom="0" laneChangedTo="0"/>
        <edge id="3si" sampledSeconds="753.05" traveltime="76.68" density="52.92" occupancy="5.29" waitingTime="390.00" speed="3.09" departed="0" arrived="0" entered="9" left="18" laneChangedFrom="0" laneChangedTo="0"/>
        <edge id="4fi" sampledSeconds="285.70" traveltime="22.77" density="19.16" occupancy="5.75" waitingTime="0.00" speed="10.91" departed="0" arrived="0" entered="14" left="12" laneChangedFrom="0" laneChangedTo="0"/>
        <edge id="4o" sampledSeconds="713.18" traveltime="47.12" density="24.32" occupancy="7.30" waitingTime="0.00" speed="10.37" departed="0" arrived="0" entered="19" left="13" laneChangedFrom="0" laneChangedTo="0"/>
        <edge id="4si" sampledSeconds="668.06" traveltime="52.56" density="46.95" occupancy="4.70" waitingTime="320.00" speed="4.51" departed="0" arrived="0" entered="12" left="16" laneChangedFrom="0" laneChangedTo="0"/>
    </interval>
    <interval begin="480.00" end="540.00" id="dump_60">
        <edge id="1fi" sampledSeconds="460.24" traveltime="27.79" density="30.87" occupancy="9.26" waitingTime="0.00" speed="8.94" departed="7" arrived="0" entered="7" left="18" laneChangedFrom="0" laneChangedTo="0"/>
        <edge id="1o" sampledSeconds="443.82" traveltime="47.15" density="15.14" occupancy="4.54" waitingTime="0.00" speed="10.36" departed="0" arrived="0" entered="8" left="7" laneChangedFrom="0" laneChangedTo="0"/>
        <edge id="1si" sampledSeconds="1240.09" traveltime="97.43" density="87.15" occupancy="8.72" waitingTime="693.00" speed="2.43" departed="0" arrived="0" entered="17" left="12" laneChangedFrom="0" laneChangedTo="0"/>
        <edge id="2fi" sampledSeconds="560.36" traveltime="27.31" density="37.58" occupancy="11.27" waitingTime="0.00" speed="9.10" departed="7" arrived="9" entered="12" left="10" laneChangedFrom="0" laneChangedTo="0"/>
        <edge id="2o" sampledSeconds="747.28" traveltime="46.71" density="25.49" occupancy="7.65" waitingTime="0.00" speed="10.46" departed="0" arrived="0" entered="12" left="12" laneChangedFrom="0" laneChangedTo="0"/>
        <edge id="2si" sampledSeconds="723.62" traveltime="66.29" density="50.86" occupancy="5.09" waitingTime="316.00" speed="3.58" departed="0" arrived="0" entered="10" left="20" laneChangedFrom="0" laneChangedTo="0"/>
        <edge id="3fi" sampledSeconds="539.60" traveltime="28.43" density="36.19" occupancy="10.86" waitingTime="0.00" speed="8.74" departed="9" arrived="6" entered="10" left="13" laneChangedFrom="0" laneChangedTo="0"/>
        <edge id="3o" sampledSeconds="290.57" traveltime="48.73" density="9.91" occupancy="2.97" waitingTime="0.00" speed="10.03" departed="0" arrived="0" entered="5" left="10" laneChangedFrom="0" laneChangedTo="0"/>
        <edge id="3si" sampledSeconds="656.33" traveltime="45.96" density="46.13" occupancy="4.61" waitingTime="345.00" speed="5.16" departed="0" arrived="0" entered="14" left="0" laneChangedFrom="0" laneChangedTo="0"/>
        <edge id="4fi" sampledSeconds="410.45" traveltime="22.76" density="27.53" occupancy="8.26" waitingTime="0.00" speed="10.92" departed="0" arrived="0" entered="14" left="19" laneChangedFrom="0" laneChangedTo="0"/>
        <edge id="4o" sampledSeconds="619.10" traveltime="46.86" density="21.12" occupancy="6.33" waitingTime="0.00" speed="10.43" departed="0" arrived="0" entered="12" left="14" laneChangedFrom="0" laneChangedTo="0"/>
        <edge id="4si" sampledSeconds="621.98" traveltime="42.82" density="43.71" occupancy="4.37" waitingTime="285.00" speed="5.54" departed="0" arrived="0" entered="19" left="3" laneChangedFrom="0" laneChangedTo="0"/>
    </interval>
    <interval begin="540.00" end="600.00" id="dump_60">
        <edge id="1fi" sampledSeconds="388.87" traveltime="26.47" density="26.08" occupancy="7.82" waitingTime="0.00" speed="9.39" departed="6" arrived="0" entered="10" left="15" laneChangedFrom="0" laneChangedTo="0"/>
        <edge id="1o" sampledSeconds="617.83" traveltime="47.28" density="21.07" occupancy="6.32" waitingTime="0.00" speed="10.34" departed="0" arrived="0" entered="14" left="10" laneChangedFrom="0" laneChangedTo="0"/>
        <edge id="1si" sampledSeconds="1737.10" traveltime="102.84" density="122.08" occupancy="12.21" waitingTime="1076.00" speed="2.31" departed="0" arrived="0" entered="16" left="11" laneChangedFrom="0" laneChangedTo="0"/>
        <edge id="2fi" sampledSeconds="541.37" traveltime="27.59" density="36.31" occupancy="10.89" waitingTime="0.00" speed="9.01" departed="8" arrived="7" entered="11" left="14" laneChangedFrom="0" laneChangedTo="0"/>
        <edge id="2o" sampledSeconds="524.25" traveltime="47.70" density="17.88" occupancy="5.36" waitingTime="0.00" speed="10.25" departed="0" arrived="0" entered="14" left="12" laneChangedFrom="0" laneChangedTo="0"/>
        <edge id="2si" sampledSeconds="1038.47" traveltime="62.07" density="72.98" occupancy="7.30" waitingTime="512.00" speed="3.82" departed="0" arrived="0" entered="14" left="11" laneChangedFrom="0" laneChangedTo="0"/>
        <edge id="3fi" sampledSeconds="484.20" traveltime="30.15" density="32.48" occupancy="9.74" waitingTime="0.00" speed="8.24" departed="10" arrived="1" entered="6" left="13" laneChangedFrom="0" laneChangedTo="0"/>
        <edge id="3o" sampledSeconds="596.92" traveltime="47.08" density="20.36" occupancy="6.11" waitingTime="0.00" speed="10.38" departed="0" arrived="0" entered="13" left="7" laneChangedFrom="0" laneChangedTo="0"/>
        <edge id="3si" sampledSeconds="500.95" traveltime="42.13" density="35.21" occupancy="3.52" waitingTime="131.00" speed="5.63" departed="0" arrived="0" entered="13" left="19" laneChangedFrom="0" laneChangedTo="0"/>
        <edge id="4fi" sampledSeconds="275.48" traveltime="22.79" density="18.48" occupancy="5.54" waitingTime="0.00" speed="10.90" departed="0" arrived="0" entered="15" left="12" laneChangedFrom="0" laneChangedTo="0"/>
        <edge id="4o" sampledSeconds="675.97" traveltime="46.26" density="23.06" occupancy="6.92" waitingTime="0.00" speed="10.56" departed="0" arrived="0" entered="12" left="15" laneChangedFrom="0" laneChangedTo="0"/>
        <edge id="4si" sampledSeconds="612.06" traveltime="40.24" density="43.02" occupancy="4.30" waitingTime="190.00" speed="5.89" departed="0" arrived="0" entered="12" left="21" laneChangedFrom="0" laneChangedTo="0"/>
    </interval>
    <interval begin="600.00" end="660.00" id="dump_60">
        <edge id="1fi" sampledSeconds="539.09" traveltime="28.12" density="36.16" occupancy="10.85" waitingTime="0.00" speed="8.84" departed="5" arrived="3" entered="16" left="15" laneChangedFrom="0" laneChangedTo="0"/>
        <edge id="1o" sampledSeconds="670.41" traveltime="49.42" density="22.87" occupancy="6.86" waitingTime="0.00" speed="9.89" departed="0" arrived="0" entered="14" left="16" laneChangedFrom="0" laneChangedTo="0"/>
        <edge id="1si" sampledSeconds="1752.29" traveltime="124.93" density="123.15" occupancy="12.31" waitingTime="928.00" speed="1.90" departed="0" arrived="0" entered="15" left="7" laneChangedFrom="0" laneChangedTo="0"/>
        <edge id="2fi" sampledSeconds="568.58" traveltime="26.96" density="38.13" occupancy="11.44" waitingTime="0.00" speed="9.22" departed="6" arrived="0" entered="17" left="20" laneChangedFrom="0" laneChangedTo="0"/>
        <edge id="2o" sampledSeconds="607.64" traveltime="46.69" density="20.73" occupancy="6.22" waitingTime="0.00" speed="10.47" departed="0" arrived="0" entered="13" left="16" laneChangedFrom="0" laneChangedTo="0"/>
        <edge id="2si" sampledSeconds="696.46" traveltime="40.72" density="48.95" occupancy="4.89" waitingTime="273.00" speed="5.82" departed="0" arrived="0" entered="20" left="12" laneChangedFrom="0" laneChangedTo="0"/>
        <edge id="3fi" sampledSeconds="550.07" traveltime="27.78" density="36.89" occupancy="11.07" waitingTime="0.00" speed="8.94" departed="6" arrived="9" entered="15" left="11" laneChangedFrom="0" laneChangedTo="0"/>
        <edge id="3o" sampledSeconds="708.12" traveltime="49.81" density="24.15" occupancy="7.25" waitingTime="0.00" speed="9.81" departed="0" arrived="0" entered="16" left="14" laneChangedFrom="0" laneChangedTo="0"/>
        <edge id="3si" sampledSeconds="781.13" traveltime="66.90" density="54.90" occupancy="5.49" waitingTime="394.00" speed="3.54" departed="0" arrived="0" entered="10" left="16" laneChangedFrom="0" laneChangedTo="0"/>
        <edge id="4fi" sampledSeconds="307.24" traveltime="22.77" density="20.61" occupancy="6.18" waitingTime="0.00" speed="10.91" departed="0" arrived="0" entered="14" left="12" laneChangedFrom="0" laneChangedTo="0"/>
        <edge id="4o" sampledSeconds="642.32" traveltime="47.00" density="21.91" occupancy="6.57" waitingTime="0.00" speed="10.40" departed="0" arrived="0" entered="15" left="14" laneChangedFrom="0" laneChangedTo="0"/>
        <edge id="4si" sampledSeconds="805.88" traveltime="58.90" density="56.64" occupancy="5.66" waitingTime="399.00" speed="4.03" departed="0" arrived="0" entered="12" left="18" laneChangedFrom="0" laneChangedTo="0"/>
    </interval>
    <interval begin="660.00" end="720.00" id="dump_60">
        <edge id="1fi" sampledSeconds="553.20" traveltime="26.84" density="37.10" occupancy="11.13" waitingTime="1.00" speed="9.26" departed="6" arrived="0" entered="13" left="20" laneChangedFrom="0" laneChangedTo="0"/>
        <edge id="1o" sampledSeconds="739.97" traveltime="47.49" density="25.24" occupancy="7.57" waitingTime="0.00" speed="10.29" departed="0" arrived="0" entered="16" left="14" laneChangedFrom="0" laneChangedTo="0"/>
        <edge id="1si" sampledSeconds="2170.31" traveltime="149.96" density="152.53" occupancy="15.25" waitingTime="1386.00" speed="1.58" departed="0" arrived="0" entered="20" left="20" laneChangedFrom="0" laneChangedTo="0"/>
        <edge id="2fi" sampledSeconds="493.82" traveltime="27.52" density="33.12" occupancy="9.94" waitingTime="0.00" speed="9.03" departed="4" arrived="8" entered="13" left="10" laneChangedFrom="0" laneChangedTo="0"/>
        <edge id="2o" sampledSeconds="725.89" traveltime="47.29" density="24.76" occupancy="7.43" waitingTime="0.00" speed="10.33" departed="0" arrived="0" entered="14" left="13" laneChangedFrom="0" laneChangedTo="0"/>
        <edge id="2si" sampledSeconds="765.92" traveltime="70.55" density="53.83" occupancy="5.38" waitingTime="371.00" speed="3.36" departed="0" arrived="0" entered="9" left="22" laneChangedFrom="0" laneChangedTo="0"/>
        <edge id="3fi" sampledSeconds="596.93" traveltime="27.48" density="40.04" occupancy="12.01" waitingTime="0.00" speed="9.04" departed="7" arrived="13" entered="13" left="10" laneChangedFrom="0" laneChangedTo="0"/>
        <edge id="3o" sampledSeconds="584.98" traveltime="48.38" density="19.95" occupancy="5.99" waitingTime="0.00" speed="10.10" departed="0" arrived="0" entered="11" left="13" laneChangedFrom="0" laneChangedTo="0"/>