<?xml version="1.0"?>

<!-- generated on 07/21/10 12:30:13 by SUMO sumo Version dev-SVN-r8163
<configuration>

    <input>
        <net-file value="net.net.xml"/>
        <route-files value="input_routes.rou.xml"/>
        <additional-files value="input_additional.add.xml"/>
    </input>

    <time>
        <begin value="0"/>
        <end value="1000"/>
    </time>

    <report>
        <no-duration-log value="true"/>
        <no-step-log value="true"/>
    </report>

</configuration>
-->

<netstats>
    <interval begin="0.00" end="300.00" id="dump_300">
        <edge id="1fi" sampledSeconds="713.87" traveltime="29.90" density="9.58" occupancy="4.79" waitingTime="0.00" speed="8.31" departed="18" arrived="0" entered="11" left="19" laneChangedFrom="0" laneChangedTo="0"/>
        <edge id="1o" sampledSeconds="506.94" traveltime="46.09" density="3.46" occupancy="1.73" waitingTime="0.00" speed="10.60" departed="0" arrived="0" entered="11" left="11" laneChangedFrom="0" laneChangedTo="0"/>
        <edge id="1si" sampledSeconds="942.27" traveltime="53.49" density="13.24" occupancy="2.21" waitingTime="504.00" speed="4.43" departed="0" arrived="0" entered="19" left="9" laneChangedFrom="0" laneChangedTo="0"/>
        <edge id="2fi" sampledSeconds="746.62" traveltime="30.03" density="10.02" occupancy="5.01" waitingTime="0.00" speed="8.28" departed="20" arrived="2" entered="9" left="23" laneChangedFrom="0" laneChangedTo="0"/>
        <edge id="2o" sampledSeconds="548.49" traveltime="48.09" density="3.74" occupancy="1.87" waitingTime="0.00" speed="10.16" departed="0" arrived="0" entered="17" left="9" laneChangedFrom="0" laneChangedTo="0"/>
        <edge id="2si" sampledSeconds="813.39" traveltime="38.63" density="11.43" occupancy="1.91" waitingTime="330.00" speed="6.14" departed="0" arrived="0" entered="23" left="11" laneChangedFrom="0" laneChangedTo="0"/>
        <edge id="3fi" sampledSeconds="1163.29" traveltime="32.67" density="15.60" occupancy="7.80" waitingTime="0.00" speed="7.61" departed="40" arrived="0" entered="0" left="34" laneChangedFrom="0" laneChangedTo="0"/>
        <edge id="3o" sampledSeconds="89.71" traveltime="44.63" density="0.61" occupancy="0.31" waitingTime="0.00" speed="10.95" departed="0" arrived="0" entered="6" left="0" laneChangedFrom="0" laneChangedTo="0"/>
        <edge id="3si" sampledSeconds="1171.78" traveltime="36.40" density="16.47" occupancy="2.75" waitingTime="406.00" speed="6.51" departed="0" arrived="0" entered="34" left="30" laneChangedFrom="0" laneChangedTo="0"/>
        <edge id="4fi" sampledSeconds="204.33" traveltime="22.70" density="2.74" occupancy="1.37" waitingTime="0.00" speed="10.95" departed="0" arrived="0" entered="9" left="9" laneChangedFrom="0" laneChangedTo="0"/>
        <edge id="4o" sampledSeconds="668.39" traveltime="47.44" density="4.56" occupancy="2.28" waitingTime="0.00" speed="10.30" departed="0" arrived="0" entered="22" left="9" laneChangedFrom="0" laneChangedTo="0"/>
        <edge id="4si" sampledSeconds="271.12" traveltime="30.19" density="3.81" occupancy="0.64" waitingTime="86.00" speed="7.85" departed="0" arrived="0" entered="9" left="7" laneChangedFrom="0" laneChangedTo="0"/>
    </interval>
    <interval begin="300.00" end="600.00" id="dump_300">
        <edge id="1fi" sampledSeconds="1789.90" traveltime="27.71" density="24.01" occupancy="12.00" waitingTime="0.00" speed="8.97" departed="32" arrived="0" entered="33" left="68" laneChangedFrom="0" laneChangedTo="0"/>
        <edge id="1o" sampledSeconds="1947.00" traveltime="47.31" density="13.28" occupancy="6.64" waitingTime="0.00" speed="10.33" departed="0" arrived="0" entered="47" left="34" laneChangedFrom="0" laneChangedTo="0"/>
        <edge id="1si" sampledSeconds="6636.80" traveltime="111.01" density="93.29" occupancy="15.55" waitingTime="4394.00" speed="2.14" departed="0" arrived="0" entered="68" left="43" laneChangedFrom="0" laneChangedTo="0"/>
        <edge id="2fi" sampledSeconds="1816.54" traveltime="28.43" density="24.37" occupancy="12.18" waitingTime="0.00" speed="8.74" departed="29" arrived="24" entered="62" left="64" laneChangedFrom="0" laneChangedTo="0"/>
        <edge id="2o" sampledSeconds="3032.99" traveltime="46.90" density="20.69" occupancy="10.34" waitingTime="0.00" speed="10.42" departed="0" arrived="0" entered="64" left="62" laneChangedFrom="0" laneChangedTo="0"/>
        <edge id="2si" sampledSeconds="3344.28" traveltime="51.74" density="47.01" occupancy="7.83" waitingTime="1572.00" speed="4.58" departed="0" arrived="0" entered="64" left="65" laneChangedFrom="0" laneChangedTo="0"/>
        <edge id="3fi" sampledSeconds="1772.65" traveltime="31.20" density="23.78" occupancy="11.89" waitingTime="0.00" speed="7.97" departed="49" arrived="26" entered="33" left="57" laneChangedFrom="0" laneChangedTo="0"/>
        <edge id="3o" sampledSeconds="1596.16" traveltime="45.50" density="10.89" occupancy="5.44" waitingTime="0.00" speed="10.74" departed="0" arrived="0" entered="36" left="34" laneChangedFrom="0" laneChangedTo="0"/>
        <edge id="3si" sampledSeconds="2717.73" traveltime="47.64" density="38.20" occupancy="6.37" waitingTime="1251.00" speed="4.98" departed="0" arrived="0" entered="57" left="49" laneChangedFrom="0" laneChangedTo="0"/>
        <edge id="4fi" sampledSeconds="1365.84" traveltime="22.72" density="18.32" occupancy="9.16" waitingTime="0.00" speed="10.94" departed="0" arrived="0" entered="63" left="58" laneChangedFrom="0" laneChangedTo="0"/>
        <edge id="4o" sampledSeconds="2975.12" traveltime="46.90" density="20.29" occupancy="10.15" waitingTime="0.00" speed="10.42" departed="0" arrived="0" entered="60" left="63" laneChangedFrom="0" laneChangedTo="0"/>
        <edge id="4si" sampledSeconds="2086.33" traveltime="36.28" density="29.32" occupancy="4.89" waitingTime="734.00" speed="6.54" departed="0" arrived="0" entered="58" left="53" laneChangedFrom="0" laneChangedTo="0"/>
    </interval>
    <interval begin="600.00" end="900.00" id="dump_300">
        <edge id="1fi" sampledSeconds="2307.05" traveltime="26.86" density="30.95" occupancy="15.47" waitingTime="0.00" speed="9.25" departed="29" arrived="14" entered="70" left="88" laneChangedFrom="0" laneChangedTo="0"/>
        <edge id="1o" sampledSeconds="3207.42" traveltime="47.23" density="21.88" occupancy="10.94" waitingTime="0.00" speed="10.35" departed="0" arrived="0" entered="67" left="69" laneChangedFrom="0" laneChangedTo="0"/>
        <edge id="1si" sampledSeconds="12693.49" traveltime="176.58" density="178.42" occupancy="29.74" waitingTime="9254.00" speed="1.34" departed="0" arrived="0" entered="88" left="74" laneChangedFrom="0" laneChangedTo="0"/>
        <edge id="2fi" sampledSeconds="1797.74" traveltime="27.77" density="24.11" occupancy="12.06" waitingTime="0.00" speed="8.95" departed="30" arrived="28" entered="62" left="64" laneChangedFrom="0" laneChangedTo="0"/>
        <edge id="2o" sampledSeconds="2848.55" traveltime="46.43" density="19.43" occupancy="9.72" waitingTime="0.00" speed="10.52" departed="0" arrived="0" entered="60" left="62" laneChangedFrom="0" laneChangedTo="0"/>
        <edge id="2si" sampledSeconds="3228.99" traveltime="52.68" density="45.39" occupancy="7.56" waitingTime="1559.00" speed="4.50" departed="0" arrived="0" entered="64" left="67" laneChangedFrom="0" laneChangedTo="0"/>
        <edge id="3fi" sampledSeconds="1452.21" traveltime="30.68" density="19.48" occupancy="9.74" waitingTime="0.00" speed="8.10" departed="39" arrived="47" entered="57" left="48" laneChangedFrom="0" laneChangedTo="0"/>
        <edge id="3o" sampledSeconds="2728.29" traveltime="46.72" density="18.61" occupancy="9.31" waitingTime="0.00" speed="10.46" departed="0" arrived="0" entered="59" left="56" laneChangedFrom="0" laneChangedTo="0"/>
        <edge id="3si" sampledSeconds="2737.82" traveltime="56.28" density="38.48" occupancy="6.41" waitingTime="1470.00" speed="4.21" departed="0" arrived="0" entered="48" left="46" laneChangedFrom="0" laneChangedTo="0"/>
        <edge id="4fi" sampledSeconds="1380.38" traveltime="22.72" density="18.52" occupancy="9.26" waitingTime="0.00" speed="10.94" departed="0" arrived="0" entered="58" left="62" laneChangedFrom="0" laneChangedTo="0"/>
        <edge id="4o" sampledSeconds="2643.60" traveltime="47.12" density="18.03" occupancy="9.02" waitingTime="0.00" speed="10.37" departed="0" arrived="0" entered="56" left="58" laneChangedFrom="0" laneChangedTo="0"/>
        <edge id="4si" sampledSeconds="2451.01" traveltime="41.47" density="34.45" occupancy="5.74" waitingTime="1021.00" speed="5.72" departed="0" arrived="0" entered="62" left="51" laneChangedFrom="0" laneChangedTo="0"/>
    </interval>
    <interval begin="900.00" end="1000.00" id="dump_300">
        <edge id="1fi" sampledSeconds="1276.15" traveltime="46.41" density="51.35" occupancy="25.68" waitingTime="153.15" speed="5.35" departed="10" arrived="3" entered="21" left="17" laneChangedFrom="0" laneChangedTo="0"/>
        <edge id="1o" sampledSeconds="1048.79" traveltime="47.30" density="21.46" occupancy="10.73" waitingTime="0.00" speed="10.33" departed="0" arrived="0" entered="21" left="21" laneChangedFrom="0" laneChangedTo="0"/>
        <edge id="1si" sampledSeconds="5209.32" traveltime="278.25" density="219.66" occupancy="36.61" waitingTime="3724.00" speed="0.85" departed="0" arrived="0" entered="17" left="10" laneChangedFrom="0" laneChangedTo="0"/>
        <edge id="2fi" sampledSeconds="539.46" traveltime="28.11" density="21.71" occupancy="10.85" waitingTime="0.00" speed="8.84" departed="9" arrived="8" entered="19" left="19" laneChangedFrom="0" laneChangedTo="0"/>
        <edge id="2o" sampledSeconds="702.15" traveltime="47.94" density="14.37" occupancy="7.18" waitingTime="0.00" speed="10.19" departed="0" arrived="0" entered="13" left="19" laneChangedFrom="0" laneChangedTo="0"/>
        <edge id="2si" sampledSeconds="979.55" traveltime="45.56" density="41.31" occupancy="6.88" waitingTime="428.00" speed="5.21" departed="0" arrived="0" entered="19" left="18" laneChangedFrom="0" laneChangedTo="0"/>
        <edge id="3fi" sampledSeconds="491.69" traveltime="30.44" density="19.79" occupancy="9.89" waitingTime="0.00" speed="8.16" departed="12" arrived="14" entered="17" left="15" laneChangedFrom="0" laneChangedTo="0"/>
        <edge id="3o" sampledSeconds="837.76" traveltime="46.26" density="17.14" occupancy="8.57" waitingTime="0.00" speed="10.56" departed="0" arrived="0" entered="15" left="17" laneChangedFrom="0" laneChangedTo="0"/>
        <edge id="3si" sampledSeconds="758.45" traveltime="49.16" density="31.98" occupancy="5.33" waitingTime="325.00" speed="4.82" departed="0" arrived="0" entered="15" left="23" laneChangedFrom="0" laneChangedTo="0"/>
        <edge id="4fi" sampledSeconds="344.12" traveltime="22.72" density="13.85" occupancy="6.92" waitingTime="0.00" speed="10.94" departed="0" arrived="0" entered="15" left="16" laneChangedFrom="0" laneChangedTo="0"/>
        <edge id="4o" sampledSeconds="826.88" traveltime="47.44" density="16.92" occupancy="8.46" waitingTime="0.00" speed="10.30" departed="0" arrived="0" entered="17" left="16" laneChangedFrom="0" laneChangedTo="0"/>
        <edge id="4si" sampledSeconds="918.00" traveltime="53.88" density="38.71" occupancy="6.45" waitingTime="407.00" speed="4.40" departed="0" arrived="0" entered="16" left="22" laneChangedFrom="0" laneChangedTo="0"/>
    </interval>
</netstats>
