<?xml version="1.0"?>

<!-- generated on 02/15/12 11:30:14 by SUMO sumo Version dev-SVN-r11891
<?xml version="1.0" encoding="UTF-8"?>

<configuration xmlns:xsi="http://www.w3.org/2001/XMLSchema-instance" xsi:noNamespaceSchemaLocation="http://sumo.sf.net/xsd/sumoConfiguration.xsd">

    <input>
        <net-file value="net.net.xml"/>
        <route-files value="input_routes.rou.xml"/>
        <additional-files value="input_additional.add.xml"/>
    </input>

    <time>
        <begin value="0"/>
        <end value="1000"/>
    </time>

    <report>
        <no-duration-log value="true"/>
        <no-step-log value="true"/>
    </report>

</configuration>
-->

<netstats>
    <interval begin="0.00" end="60.00" id="dump_60">
        <edge id="1fi" sampledSeconds="0.00" departed="0" arrived="0" entered="0" left="0" laneChangedFrom="0" laneChangedTo="0"/>
        <edge id="1o" sampledSeconds="0.00" departed="0" arrived="0" entered="0" left="0" laneChangedFrom="0" laneChangedTo="0"/>
        <edge id="1si" sampledSeconds="0.00" departed="0" arrived="0" entered="0" left="0" laneChangedFrom="0" laneChangedTo="0"/>
        <edge id="2fi" sampledSeconds="0.00" departed="0" arrived="0" entered="0" left="0" laneChangedFrom="0" laneChangedTo="0"/>
        <edge id="2o" sampledSeconds="0.00" departed="0" arrived="0" entered="0" left="0" laneChangedFrom="0" laneChangedTo="0"/>
        <edge id="2si" sampledSeconds="0.00" departed="0" arrived="0" entered="0" left="0" laneChangedFrom="0" laneChangedTo="0"/>
        <edge id="3fi" sampledSeconds="0.00" departed="0" arrived="0" entered="0" left="0" laneChangedFrom="0" laneChangedTo="0"/>
        <edge id="3o" sampledSeconds="0.00" departed="0" arrived="0" entered="0" left="0" laneChangedFrom="0" laneChangedTo="0"/>
        <edge id="3si" sampledSeconds="0.00" departed="0" arrived="0" entered="0" left="0" laneChangedFrom="0" laneChangedTo="0"/>
        <edge id="4fi" sampledSeconds="0.00" departed="0" arrived="0" entered="0" left="0" laneChangedFrom="0" laneChangedTo="0"/>
        <edge id="4o" sampledSeconds="0.00" departed="0" arrived="0" entered="0" left="0" laneChangedFrom="0" laneChangedTo="0"/>
        <edge id="4si" sampledSeconds="0.00" departed="0" arrived="0" entered="0" left="0" laneChangedFrom="0" laneChangedTo="0"/>
    </interval>
    <interval begin="60.00" end="120.00" id="dump_60">
        <edge id="1fi" sampledSeconds="28.00" traveltime="50.25" density="1.88" occupancy="0.56" waitingTime="0.00" speed="4.95" departed="2" arrived="0" entered="0" left="0" laneChangedFrom="0" laneChangedTo="0"/>
        <edge id="1o" sampledSeconds="0.00" departed="0" arrived="0" entered="0" left="0" laneChangedFrom="0" laneChangedTo="0"/>
        <edge id="1si" sampledSeconds="0.00" departed="0" arrived="0" entered="0" left="0" laneChangedFrom="0" laneChangedTo="0"/>
        <edge id="2fi" sampledSeconds="28.00" traveltime="48.72" density="1.88" occupancy="0.56" waitingTime="0.00" speed="5.10" departed="2" arrived="0" entered="0" left="0" laneChangedFrom="0" laneChangedTo="0"/>
        <edge id="2o" sampledSeconds="0.00" departed="0" arrived="0" entered="0" left="0" laneChangedFrom="0" laneChangedTo="0"/>
        <edge id="2si" sampledSeconds="0.00" departed="0" arrived="0" entered="0" left="0" laneChangedFrom="0" laneChangedTo="0"/>
        <edge id="3fi" sampledSeconds="47.00" traveltime="51.39" density="3.15" occupancy="0.95" waitingTime="0.00" speed="4.84" departed="4" arrived="0" entered="0" left="0" laneChangedFrom="0" laneChangedTo="0"/>
        <edge id="3o" sampledSeconds="0.00" departed="0" arrived="0" entered="0" left="0" laneChangedFrom="0" laneChangedTo="0"/>
        <edge id="3si" sampledSeconds="0.00" departed="0" arrived="0" entered="0" left="0" laneChangedFrom="0" laneChangedTo="0"/>
        <edge id="4fi" sampledSeconds="0.00" departed="0" arrived="0" entered="0" left="0" laneChangedFrom="0" laneChangedTo="0"/>
        <edge id="4o" sampledSeconds="0.00" departed="0" arrived="0" entered="0" left="0" laneChangedFrom="0" laneChangedTo="0"/>
        <edge id="4si" sampledSeconds="0.00" departed="0" arrived="0" entered="0" left="0" laneChangedFrom="0" laneChangedTo="0"/>
    </interval>
    <interval begin="120.00" end="180.00" id="dump_60">
        <edge id="1fi" sampledSeconds="186.74" traveltime="31.42" density="12.52" occupancy="3.76" waitingTime="0.00" speed="7.91" departed="6" arrived="0" entered="0" left="5" laneChangedFrom="0" laneChangedTo="0"/>
        <edge id="1o" sampledSeconds="45.81" traveltime="44.78" density="1.56" occupancy="0.47" waitingTime="0.00" speed="10.91" departed="0" arrived="0" entered="2" left="0" laneChangedFrom="0" laneChangedTo="0"/>
        <edge id="1si" sampledSeconds="83.92" traveltime="18.97" density="5.90" occupancy="0.59" waitingTime="0.00" speed="12.50" departed="0" arrived="0" entered="5" left="3" laneChangedFrom="0" laneChangedTo="0"/>
        <edge id="2fi" sampledSeconds="186.78" traveltime="31.81" density="12.53" occupancy="3.76" waitingTime="0.00" speed="7.81" departed="6" arrived="0" entered="0" left="5" laneChangedFrom="0" laneChangedTo="0"/>
        <edge id="2o" sampledSeconds="0.00" departed="0" arrived="0" entered="0" left="0" laneChangedFrom="0" laneChangedTo="0"/>
        <edge id="2si" sampledSeconds="87.33" traveltime="20.09" density="6.14" occupancy="0.61" waitingTime="5.00" speed="11.80" departed="0" arrived="0" entered="5" left="2" laneChangedFrom="0" laneChangedTo="0"/>
        <edge id="3fi" sampledSeconds="358.57" traveltime="31.96" density="24.05" occupancy="7.21" waitingTime="0.00" speed="7.77" departed="12" arrived="0" entered="0" left="10" laneChangedFrom="0" laneChangedTo="0"/>
        <edge id="3o" sampledSeconds="0.00" departed="0" arrived="0" entered="0" left="0" laneChangedFrom="0" laneChangedTo="0"/>
        <edge id="3si" sampledSeconds="249.86" traveltime="31.64" density="17.56" occupancy="1.76" waitingTime="84.00" speed="7.49" departed="0" arrived="0" entered="10" left="0" laneChangedFrom="0" laneChangedTo="0"/>
        <edge id="4fi" sampledSeconds="0.00" departed="0" arrived="0" entered="0" left="0" laneChangedFrom="0" laneChangedTo="0"/>
        <edge id="4o" sampledSeconds="45.52" traveltime="47.11" density="1.55" occupancy="0.47" waitingTime="0.00" speed="10.37" departed="0" arrived="0" entered="3" left="0" laneChangedFrom="0" laneChangedTo="0"/>
        <edge id="4si" sampledSeconds="0.00" departed="0" arrived="0" entered="0" left="0" laneChangedFrom="0" laneChangedTo="0"/>
    </interval>
    <interval begin="180.00" end="240.00" id="dump_60">
        <edge id="1fi" sampledSeconds="245.80" traveltime="30.62" density="16.49" occupancy="4.95" waitingTime="0.00" speed="8.12" departed="6" arrived="0" entered="2" left="8" laneChangedFrom="0" laneChangedTo="0"/>
        <edge id="1o" sampledSeconds="56.25" traveltime="48.57" density="1.92" occupancy="0.58" waitingTime="0.00" speed="10.06" departed="0" arrived="0" entered="3" left="2" laneChangedFrom="0" laneChangedTo="0"/>
        <edge id="1si" sampledSeconds="321.49" traveltime="48.13" density="22.59" occupancy="2.26" waitingTime="133.00" speed="4.93" departed="0" arrived="0" entered="8" left="2" laneChangedFrom="0" laneChangedTo="0"/>
        <edge id="2fi" sampledSeconds="194.75" traveltime="31.96" density="13.06" occupancy="3.92" waitingTime="0.00" speed="7.78" departed="6" arrived="0" entered="2" left="6" laneChangedFrom="0" laneChangedTo="0"/>
        <edge id="2o" sampledSeconds="300.58" traveltime="47.58" density="10.25" occupancy="3.08" waitingTime="0.00" speed="10.27" departed="0" arrived="0" entered="7" left="2" laneChangedFrom="0" laneChangedTo="0"/>
        <edge id="2si" sampledSeconds="347.10" traveltime="59.12" density="24.39" occupancy="2.44" waitingTime="172.00" speed="4.01" departed="0" arrived="0" entered="6" left="5" laneChangedFrom="0" laneChangedTo="0"/>
        <edge id="3fi" sampledSeconds="378.59" traveltime="31.46" density="25.39" occupancy="7.62" waitingTime="0.00" speed="7.90" departed="12" arrived="0" entered="0" left="12" laneChangedFrom="0" laneChangedTo="0"/>
        <edge id="3o" sampledSeconds="0.00" departed="0" arrived="0" entered="0" left="0" laneChangedFrom="0" laneChangedTo="0"/>
        <edge id="3si" sampledSeconds="343.43" traveltime="28.27" density="24.14" occupancy="2.41" waitingTime="57.00" speed="8.39" departed="0" arrived="0" entered="12" left="13" laneChangedFrom="0" laneChangedTo="0"/>
        <edge id="4fi" sampledSeconds="73.94" traveltime="22.83" density="4.96" occupancy="1.49" waitingTime="0.00" speed="10.88" departed="0" arrived="0" entered="5" left="2" laneChangedFrom="0" laneChangedTo="0"/>
        <edge id="4o" sampledSeconds="349.39" traveltime="45.80" density="11.92" occupancy="3.58" waitingTime="0.00" speed="10.67" departed="0" arrived="0" entered="6" left="6" laneChangedFrom="0" laneChangedTo="0"/>
        <edge id="4si" sampledSeconds="19.90" traveltime="18.20" density="1.40" occupancy="0.14" waitingTime="0.00" speed="13.03" departed="0" arrived="0" entered="2" left="0" laneChangedFrom="0" laneChangedTo="0"/>
    </interval>
    <interval begin="240.00" end="300.00" id="dump_60">
        <edge id="1fi" sampledSeconds="248.60" traveltime="26.95" density="16.67" occupancy="5.00" waitingTime="0.00" speed="9.22" departed="5" arrived="0" entered="9" left="6" laneChangedFrom="0" laneChangedTo="0"/>
        <edge id="1o" sampledSeconds="406.28" traveltime="45.72" density="13.86" occupancy="4.16" waitingTime="0.00" speed="10.69" departed="0" arrived="0" entered="6" left="9" laneChangedFrom="0" laneChangedTo="0"/>
        <edge id="1si" sampledSeconds="485.50" traveltime="71.86" density="34.12" occupancy="3.41" waitingTime="270.00" speed="3.30" departed="0" arrived="0" entered="6" left="5" laneChangedFrom="0" laneChangedTo="0"/>
        <edge id="2fi" sampledSeconds="380.90" traveltime="28.58" density="25.55" occupancy="7.66" waitingTime="0.00" speed="8.69" departed="6" arrived="0" entered="6" left="13" laneChangedFrom="0" laneChangedTo="0"/>
        <edge id="2o" sampledSeconds="250.73" traveltime="49.99" density="8.55" occupancy="2.57" waitingTime="0.00" speed="9.78" departed="0" arrived="0" entered="10" left="6" laneChangedFrom="0" laneChangedTo="0"/>
        <edge id="2si" sampledSeconds="386.96" traveltime="32.95" density="27.20" occupancy="2.72" waitingTime="124.00" speed="7.20" departed="0" arrived="0" entered="13" left="4" laneChangedFrom="0" laneChangedTo="0"/>
        <edge id="3fi" sampledSeconds="383.14" traveltime="31.42" density="25.70" occupancy="7.71" waitingTime="0.00" speed="7.91" departed="12" arrived="0" entered="0" left="12" laneChangedFrom="0" laneChangedTo="0"/>
        <edge id="3o" sampledSeconds="86.49" traveltime="44.82" density="2.95" occupancy="0.89" waitingTime="0.00" speed="10.90" departed="0" arrived="0" entered="6" left="0" laneChangedFrom="0" laneChangedTo="0"/>
        <edge id="3si" sampledSeconds="641.40" traveltime="50.95" density="45.08" occupancy="4.51" waitingTime="271.00" speed="4.66" departed="0" arrived="0" entered="12" left="17" laneChangedFrom="0" laneChangedTo="0"/>
        <edge id="4fi" sampledSeconds="133.61" traveltime="22.76" density="8.96" occupancy="2.69" waitingTime="0.00" speed="10.92" departed="0" arrived="0" entered="4" left="7" laneChangedFrom="0" laneChangedTo="0"/>
        <edge id="4o" sampledSeconds="276.75" traveltime="48.98" density="9.44" occupancy="2.83" waitingTime="0.00" speed="9.98" departed="0" arrived="0" entered="14" left="3" laneChangedFrom="0" laneChangedTo="0"/>
        <edge id="4si" sampledSeconds="260.67" traveltime="32.66" density="18.32" occupancy="1.83" waitingTime="90.00" speed="7.26" departed="0" arrived="0" entered="7" left="8" laneChangedFrom="0" laneChangedTo="0"/>
    </interval>
    <interval begin="300.00" end="360.00" id="dump_60">
        <edge id="1fi" sampledSeconds="337.45" traveltime="28.43" density="22.63" occupancy="6.79" waitingTime="0.00" speed="8.74" departed="7" arrived="0" entered="0" left="15" laneChangedFrom="0" laneChangedTo="0"/>
        <edge id="1o" sampledSeconds="239.15" traveltime="47.16" density="8.16" occupancy="2.45" waitingTime="0.00" speed="10.36" departed="0" arrived="0" entered="9" left="0" laneChangedFrom="0" laneChangedTo="0"/>
        <edge id="1si" sampledSeconds="783.75" traveltime="54.03" density="55.08" occupancy="5.51" waitingTime="351.00" speed="4.39" departed="0" arrived="0" entered="15" left="13" laneChangedFrom="0" laneChangedTo="0"/>
        <edge id="2fi" sampledSeconds="391.27" traveltime="27.73" density="26.24" occupancy="7.87" waitingTime="0.00" speed="8.96" departed="5" arrived="0" entered="11" left="9" laneChangedFrom="0" laneChangedTo="0"/>
        <edge id="2o" sampledSeconds="710.20" traveltime="47.05" density="24.22" occupancy="7.27" waitingTime="0.00" speed="10.39" departed="0" arrived="0" entered="13" left="11" laneChangedFrom="0" laneChangedTo="0"/>
        <edge id="2si" sampledSeconds="478.63" traveltime="58.43" density="33.64" occupancy="3.36" waitingTime="199.00" speed="4.06" departed="0" arrived="0" entered="9" left="16" laneChangedFrom="0" laneChangedTo="0"/>
        <edge id="3fi" sampledSeconds="443.38" traveltime="29.85" density="29.74" occupancy="8.92" waitingTime="0.00" speed="8.32" departed="9" arrived="2" entered="6" left="11" laneChangedFrom="0" laneChangedTo="0"/>
        <edge id="3o" sampledSeconds="197.04" traveltime="47.98" density="6.72" occupancy="2.02" waitingTime="0.00" speed="10.19" departed="0" arrived="0" entered="0" left="6" laneChangedFrom="0" laneChangedTo="0"/>
        <edge id="3si" sampledSeconds="535.28" traveltime="48.24" density="37.62" occupancy="3.76" waitingTime="297.00" speed="4.92" departed="0" arrived="0" entered="11" left="1" laneChangedFrom="0" laneChangedTo="0"/>
        <edge id="4fi" sampledSeconds="299.53" traveltime="22.76" density="20.09" occupancy="6.03" waitingTime="0.00" speed="10.92" departed="0" arrived="0" entered="14" left="9" laneChangedFrom="0" laneChangedTo="0"/>
        <edge id="4o" sampledSeconds="640.01" traveltime="46.75" density="21.83" occupancy="6.55" waitingTime="0.00" speed="10.45" departed="0" arrived="0" entered="11" left="14" laneChangedFrom="0" laneChangedTo="0"/>
        <edge id="4si" sampledSeconds="152.47" traveltime="25.83" density="10.72" occupancy="1.07" waitingTime="19.00" speed="9.18" departed="0" arrived="0" entered="9" left="1" laneChangedFrom="0" laneChangedTo="0"/>
    </interval>
    <interval begin="360.00" end="420.00" id="dump_60">
        <edge id="1fi" sampledSeconds="374.15" traveltime="26.40" density="25.09" occupancy="7.53" waitingTime="0.00" speed="9.41" departed="6" arrived="0" entered="9" left="13" laneChangedFrom="0" laneChangedTo="0"/>
        <edge id="1o" sampledSeconds="191.40" traveltime="45.74" density="6.53" occupancy="1.96" waitingTime="0.00" speed="10.68" departed="0" arrived="0" entered="3" left="9" laneChangedFrom="0" laneChangedTo="0"/>
        <edge id="1si" sampledSeconds="958.19" traveltime="84.09" density="67.34" occupancy="6.73" waitingTime="601.00" speed="2.82" departed="0" arrived="0" entered="13" left="6" laneChangedFrom="0" laneChangedTo="0"/>
        <edge id="2fi" sampledSeconds="509.68" traveltime="28.13" density="34.18" occupancy="10.26" waitingTime="0.00" speed="8.83" departed="5" arrived="0" entered="13" left="12" laneChangedFrom="0" laneChangedTo="0"/>
        <edge id="2o" sampledSeconds="608.35" traveltime="50.58" density="20.75" occupancy="6.22" waitingTime="0.00" speed="9.66" departed="0" arrived="0" entered="14" left="13" laneChangedFrom="0" laneChangedTo="0"/>
        <edge id="2si" sampledSeconds="793.01" traveltime="53.10" density="55.73" occupancy="5.57" waitingTime="364.00" speed="4.47" departed="0" arrived="0" entered="12" left="13" laneChangedFrom="0" laneChangedTo="0"/>
        <edge id="3fi" sampledSeconds="376.79" traveltime="31.42" density="25.27" occupancy="7.58" waitingTime="0.00" speed="7.91" departed="11" arrived="2" entered="1" left="10" laneChangedFrom="0" laneChangedTo="0"/>
        <edge id="3o" sampledSeconds="364.08" traveltime="45.33" density="12.42" occupancy="3.73" waitingTime="0.00" speed="10.78" departed="0" arrived="0" entered="10" left="2" laneChangedFrom="0" laneChangedTo="0"/>
        <edge id="3si" sampledSeconds="384.01" traveltime="40.01" density="26.99" occupancy="2.70" waitingTime="83.00" speed="5.93" departed="0" arrived="0" entered="10" left="15" laneChangedFrom="0" laneChangedTo="0"/>
        <edge id="4fi" sampledSeconds="257.12" traveltime="22.78" density="17.25" occupancy="5.17" waitingTime="0.00" speed="10.91" departed="0" arrived="0" entered="13" left="12" laneChangedFrom="0" laneChangedTo="0"/>
        <edge id="4o" sampledSeconds="635.19" traveltime="46.56" density="21.66" occupancy="6.50" waitingTime="0.00" speed="10.50" departed="0" arrived="0" entered="12" left="13" laneChangedFrom="0" laneChangedTo="0"/>
        <edge id="4si" sampledSeconds="456.78" traveltime="31.27" density="32.10" occupancy="3.21" waitingTime="106.00" speed="7.58" departed="0" arrived="0" entered="12" left="13" laneChangedFrom="0" laneChangedTo="0"/>
    </interval>
    <interval begin="420.00" end="480.00" id="dump_60">
        <edge id="1fi" sampledSeconds="274.70" traveltime="27.20" density="18.42" occupancy="5.53" waitingTime="0.00" speed="9.14" departed="6" arrived="0" entered="6" left="8" laneChangedFrom="0" laneChangedTo="0"/>
        <edge id="1o" sampledSeconds="380.01" traveltime="47.61" density="12.96" occupancy="3.89" waitingTime="0.00" speed="10.26" departed="0" arrived="0" entered="10" left="6" laneChangedFrom="0" laneChangedTo="0"/>
        <edge id="1si" sampledSeconds="968.41" traveltime="114.06" density="68.06" occupancy="6.81" waitingTime="482.00" speed="2.08" departed="0" arrived="0" entered="8" left="9" laneChangedFrom="0" laneChangedTo="0"/>
        <edge id="2fi" sampledSeconds="521.90" traveltime="27.13" density="35.00" occupancy="10.50" waitingTime="0.00" speed="9.16" departed="3" arrived="0" entered="18" left="17" laneChangedFrom="0" laneChangedTo="0"/>
        <edge id="2o" sampledSeconds="666.51" traveltime="47.41" density="22.73" occupancy="6.82" waitingTime="0.00" speed="10.31" departed="0" arrived="0" entered="13" left="18" laneChangedFrom="0" laneChangedTo="0"/>
        <edge id="2si" sampledSeconds="474.28" traveltime="36.09" density="33.33" occupancy="3.33" waitingTime="168.00" speed="6.57" departed="0" arrived="0" entered="17" left="5" laneChangedFrom="0" laneChangedTo="0"/>
        <edge id="3fi" sampledSeconds="482.04" traveltime="28.17" density="32.33" occupancy="9.70" waitingTime="0.00" speed="8.82" departed="8" arrived="0" entered="9" left="8" laneChangedFrom="0" laneChangedTo="0"/>
        <edge id="3o" sampledSeconds="283.52" traveltime="48.77" density="9.67" occupancy="2.90" waitingTime="0.00" speed="10.02" departed="0" arrived="0" entered="10" left="8" laneChangedFrom="0" laneChangedTo="0"/>
        <edge id="3si" sampledSeconds="541.55" traveltime="66.13" density="38.06" occupancy="3.81" waitingTime="265.00" speed="3.59" departed="0" arrived="0" entered="7" left="14" laneChangedFrom="0" laneChangedTo="0"/>
        <edge id="4fi" sampledSeconds="305.75" traveltime="22.79" density="20.51" occupancy="6.15" waitingTime="0.00" speed="10.90" departed="0" arrived="0" entered="15" left="12" laneChangedFrom="0" laneChangedTo="0"/>
        <edge id="4o" sampledSeconds="756.12" traveltime="47.18" density="25.79" occupancy="7.74" waitingTime="0.00" speed="10.36" departed="0" arrived="0" entered="18" left="15" laneChangedFrom="0" laneChangedTo="0"/>
        <edge id="4si" sampledSeconds="687.12" traveltime="53.65" density="48.29" occupancy="4.83" waitingTime="333.00" speed="4.42" departed="0" arrived="0" entered="12" left="17" laneChangedFrom="0" laneChangedTo="0"/>
    </interval>
    <interval begin="480.00" end="540.00" id="dump_60">
        <edge id="1fi" sampledSeconds="409.81" traveltime="28.54" density="27.49" occupancy="8.25" waitingTime="0.00" speed="8.71" departed="6" arrived="0" entered="7" left="15" laneChangedFrom="0" laneChangedTo="0"/>
        <edge id="1o" sampledSeconds="439.83" traveltime="47.84" density="15.00" occupancy="4.50" waitingTime="0.00" speed="10.22" departed="0" arrived="0" entered="7" left="7" laneChangedFrom="0" laneChangedTo="0"/>
        <edge id="1si" sampledSeconds="1208.09" traveltime="103.45" density="84.90" occupancy="8.49" waitingTime="633.00" speed="2.29" departed="0" arrived="0" entered="15" left="13" laneChangedFrom="0" laneChangedTo="0"/>
        <edge id="2fi" sampledSeconds="516.27" traveltime="27.81" density="34.63" occupancy="10.39" waitingTime="0.00" speed="8.94" departed="6" arrived="0" entered="11" left="9" laneChangedFrom="0" laneChangedTo="0"/>
        <edge id="2o" sampledSeconds="663.55" traveltime="47.37" density="22.63" occupancy="6.79" waitingTime="0.00" speed="10.31" departed="0" arrived="0" entered="11" left="12" laneChangedFrom="0" laneChangedTo="0"/>
        <edge id="2si" sampledSeconds="615.02" traveltime="61.89" density="43.22" occupancy="4.32" waitingTime="264.00" speed="3.83" departed="0" arrived="0" entered="9" left="18" laneChangedFrom="0" laneChangedTo="0"/>
        <edge id="3fi" sampledSeconds="474.19" traveltime="27.80" density="31.80" occupancy="9.54" waitingTime="0.00" speed="8.94" departed="7" arrived="0" entered="10" left="11" laneChangedFrom="0" laneChangedTo="0"/>
        <edge id="3o" sampledSeconds="343.68" traveltime="46.74" density="11.72" occupancy="3.52" waitingTime="0.00" speed="10.45" departed="0" arrived="0" entered="4" left="10" laneChangedFrom="0" laneChangedTo="0"/>
        <edge id="3si" sampledSeconds="541.98" traveltime="44.49" density="38.09" occupancy="3.81" waitingTime="281.00" speed="5.33" departed="0" arrived="0" entered="12" left="0" laneChangedFrom="0" laneChangedTo="0"/>
        <edge id="4fi" sampledSeconds="400.61" traveltime="22.77" density="26.87" occupancy="8.06" waitingTime="0.00" speed="10.91" departed="0" arrived="0" entered="13" left="20" laneChangedFrom="0" laneChangedTo="0"/>
        <edge id="4o" sampledSeconds="570.28" traveltime="47.65" density="19.45" occupancy="5.84" waitingTime="0.00" speed="10.26" departed="0" arrived="0" entered="13" left="13" laneChangedFrom="0" laneChangedTo="0"/>
        <edge id="4si" sampledSeconds="624.31" traveltime="40.76" density="43.88" occupancy="4.39" waitingTime="263.00" speed="5.82" departed="0" arrived="0" entered="20" left="3" laneChangedFrom="0" laneChangedTo="0"/>
    </interval>
    <interval begin="540.00" end="600.00" id="dump_60">
        <edge id="1fi" sampledSeconds="388.80" traveltime="26.66" density="26.08" occupancy="7.82" waitingTime="0.00" speed="9.32" departed="6" arrived="0" entered="9" left="16" laneChangedFrom="0" laneChangedTo="0"/>
        <edge id="1o" sampledSeconds="581.26" traveltime="47.52" density="19.83" occupancy="5.95" waitingTime="0.00" speed="10.28" departed="0" arrived="0" entered="13" left="9" laneChangedFrom="0" laneChangedTo="0"/>
        <edge id="1si" sampledSeconds="1593.41" traveltime="91.31" density="111.98" occupancy="11.20" waitingTime="915.00" speed="2.60" departed="0" arrived="0" entered="16" left="11" laneChangedFrom="0" laneChangedTo="0"/>
        <edge id="2fi" sampledSeconds="474.96" traveltime="27.59" density="31.86" occupancy="9.56" waitingTime="0.00" speed="9.01" departed="7" arrived="6" entered="10" left="13" laneChangedFrom="0" laneChangedTo="0"/>
        <edge id="2o" sampledSeconds="483.65" traveltime="48.08" density="16.50" occupancy="4.95" waitingTime="0.00" speed="10.16" departed="0" arrived="0" entered="14" left="9" laneChangedFrom="0" laneChangedTo="0"/>
        <edge id="2si" sampledSeconds="922.71" traveltime="63.08" density="64.85" occupancy="6.48" waitingTime="463.00" speed="3.76" departed="0" arrived="0" entered="13" left="10" laneChangedFrom="0" laneChangedTo="0"/>
        <edge id="3fi" sampledSeconds="424.28" traveltime="29.92" density="28.46" occupancy="8.54" waitingTime="0.00" speed="8.31" departed="9" arrived="0" entered="6" left="11" laneChangedFrom="0" laneChangedTo="0"/>
        <edge id="3o" sampledSeconds="455.04" traveltime="46.77" density="15.52" occupancy="4.66" waitingTime="0.00" speed="10.45" departed="0" arrived="0" entered="11" left="6" laneChangedFrom="0" laneChangedTo="0"/>
        <edge id="3si" sampledSeconds="401.10" traveltime="43.76" density="28.19" occupancy="2.82" waitingTime="113.00" speed="5.42" departed="0" arrived="0" entered="11" left="15" laneChangedFrom="0" laneChangedTo="0"/>
        <edge id="4fi" sampledSeconds="301.29" traveltime="22.79" density="20.21" occupancy="6.06" waitingTime="0.00" speed="10.90" departed="0" arrived="0" entered="16" left="11" laneChangedFrom="0" laneChangedTo="0"/>
        <edge id="4o" sampledSeconds="670.01" traveltime="46.37" density="22.85" occupancy="6.86" waitingTime="0.00" speed="10.54" departed="0" arrived="0" entered="11" left="16" laneChangedFrom="0" laneChangedTo="0"/>
        <edge id="4si" sampledSeconds="570.78" traveltime="42.19" density="40.11" occupancy="4.01" waitingTime="137.00" speed="5.62" departed="0" arrived="0" entered="11" left="21" laneChangedFrom="0" laneChangedTo="0"/>
    </interval>
    <interval begin="600.00" end="660.00" id="dump_60">
        <edge id="1fi" sampledSeconds="500.17" traveltime="27.52" density="33.55" occupancy="10.06" waitingTime="0.00" speed="9.03" departed="4" arrived="0" entered="16" left="14" laneChangedFrom="0" laneChangedTo="0"/>
        <edge id="1o" sampledSeconds="670.79" traveltime="48.83" density="22.88" occupancy="6.86" waitingTime="0.00" speed="10.01" departed="0" arrived="0" entered="16" left="17" laneChangedFrom="0" laneChangedTo="0"/>
        <edge id="1si" sampledSeconds="1608.21" traveltime="122.73" density="113.02" occupancy="11.30" waitingTime="913.00" speed="1.93" departed="0" arrived="0" entered="14" left="6" laneChangedFrom="0" laneChangedTo="0"/>
        <edge id="2fi" sampledSeconds="510.82" traveltime="25.60" density="34.26" occupancy="10.28" waitingTime="0.00" speed="9.71" departed="5" arrived="0" entered="15" left="17" laneChangedFrom="0" laneChangedTo="0"/>
        <edge id="2o" sampledSeconds="555.52" traveltime="46.34" density="18.95" occupancy="5.68" waitingTime="0.00" speed="10.54" departed="0" arrived="0" entered="11" left="15" laneChangedFrom="0" laneChangedTo="0"/>
        <edge id="2si" sampledSeconds="601.54" traveltime="38.80" density="42.28" occupancy="4.23" waitingTime="229.00" speed="6.11" departed="0" arrived="0" entered="17" left="11" laneChangedFrom="0" laneChangedTo="0"/>
        <edge id="3fi" sampledSeconds="490.95" traveltime="28.78" density="32.93" occupancy="9.88" waitingTime="0.00" speed="8.63" departed="6" arrived="0" entered="12" left="10" laneChangedFrom="0" laneChangedTo="0"/>
        <edge id="3o" sampledSeconds="645.57" traveltime="49.51" density="22.02" occupancy="6.61" waitingTime="0.00" speed="9.87" departed="0" arrived="0" entered="13" left="12" laneChangedFrom="0" laneChangedTo="0"/>
        <edge id="3si" sampledSeconds="670.44" traveltime="61.12" density="47.12" occupancy="4.71" waitingTime="321.00" speed="3.88" departed="0" arrived="0" entered="10" left="15" laneChangedFrom="0" laneChangedTo="0"/>
        <edge id="4fi" sampledSeconds="260.57" traveltime="22.81" density="17.48" occupancy="5.24" waitingTime="0.00" speed="10.89" departed="0" arrived="0" entered="11" left="11" laneChangedFrom="0" laneChangedTo="0"/>
        <edge id="4o" sampledSeconds="521.69" traveltime="47.30" density="17.79" occupancy="5.34" waitingTime="0.00" speed="10.33" departed="0" arrived="0" entered="12" left="11" laneChangedFrom="0" laneChangedTo="0"/>
        <edge id="4si" sampledSeconds="818.68" traveltime="61.97" density="57.54" occupancy="5.75" waitingTime="406.00" speed="3.83" departed="0" arrived="0" entered="11" left="15" laneChangedFrom="0" laneChangedTo="0"/>
    </interval>
    <interval begin="660.00" end="720.00" id="dump_60">
        <edge id="1fi" sampledSeconds="554.72" traveltime="27.62" density="37.20" occupancy="11.16" waitingTime="0.00" speed="9.00" departed="6" arrived="0" entered="14" left="19" laneChangedFrom="0" laneChangedTo="0"/>
        <edge id="1o" sampledSeconds="657.86" traveltime="48.81" density="22.44" occupancy="6.73" waitingTime="0.00" speed="10.01" departed="0" arrived="0" entered="11" left="13" laneChangedFrom="0" laneChangedTo="0"/>
        <edge id="1si" sampledSeconds="1980.94" traveltime="133.39" density="139.22" occupancy="13.92" waitingTime="1154.00" speed="1.78" departed="0" arrived="0" entered="19" left="21" laneChangedFrom="0" laneChangedTo="0"/>
        <edge id="2fi" sampledSeconds="467.22" traveltime="28.79" density="31.34" occupancy="9.40" waitingTime="0.00" speed="8.63" departed="6" arrived="1" entered="10" left="11" laneChangedFrom="0" laneChangedTo="0"/>
        <edge id="2o" sampledSeconds="678.31" traveltime="47.40" density="23.14" occupancy="6.94" waitingTime="0.00" speed="10.31" departed="0" arrived="0" entered="14" left="11" laneChangedFrom="0" laneChangedTo="0"/>
        <edge id="2si" sampledSeconds="728.09" traveltime="66.17" density="51.17" occupancy="5.12" waitingTime="348.00" speed="3.58" departed="0" arrived="0" entered="11" left="17" laneChangedFrom="0" laneChangedTo="0"/>
        <edge id="3fi" sampledSeconds="546.62" traveltime="27.66" density="36.66" occupancy="11.00" waitingTime="0.00" speed="8.99" departed="8" arrived="0" entered="10" left="10" laneChangedFrom="0" laneChangedTo="0"/>
        <edge id="3o" sampledSeconds="481.24" traveltime="49.55" density="16.41" occupancy="4.92" waitingTime="0.00" speed="9.86" departed="0" arrived="0" entered="11" left="10" laneChangedFrom="0" laneChangedTo="0"/>