<?xml version="1.0"?>

<!-- generated on Tue Nov  6 10:42:11 2012 by SUMO sumo Version dev-SVN-r12937
<?xml version="1.0" encoding="UTF-8"?>

<configuration xmlns:xsi="http://www.w3.org/2001/XMLSchema-instance" xsi:noNamespaceSchemaLocation="http://sumo.sf.net/xsd/sumoConfiguration.xsd">

    <input>
        <net-file value="net.net.xml"/>
        <route-files value="input_routes.rou.xml"/>
        <additional-files value="input_additional.add.xml"/>
    </input>

    <time>
        <begin value="0"/>
        <end value="1000"/>
    </time>

    <report>
        <no-duration-log value="true"/>
        <no-step-log value="true"/>
    </report>

</configuration>
-->

<netstats>
    <interval begin="0.00" end="900.00" id="dump_900">
        <edge id="1fi" sampledSeconds="5327.71" traveltime="27.84" density="23.82" occupancy="7.15" waitingTime="2.00" speed="8.93" departed="79" arrived="12" entered="116" left="174" laneChangedFrom="0" laneChangedTo="0"/>
        <edge id="1o" sampledSeconds="5896.22" traveltime="48.27" density="13.41" occupancy="4.02" waitingTime="0.00" speed="10.12" departed="0" arrived="0" entered="126" left="116" laneChangedFrom="0" laneChangedTo="0"/>
        <edge id="1si" sampledSeconds="17204.28" traveltime="108.46" density="80.61" occupancy="8.06" waitingTime="9667.00" speed="2.19" departed="0" arrived="0" entered="174" left="137" laneChangedFrom="0" laneChangedTo="0"/>
        <edge id="2fi" sampledSeconds="6057.61" traveltime="28.18" density="27.09" occupancy="8.13" waitingTime="0.00" speed="8.82" departed="79" arrived="52" entered="140" left="158" laneChangedFrom="0" laneChangedTo="0"/>
        <edge id="2o" sampledSeconds="7033.55" traveltime="48.10" density="15.99" occupancy="4.80" waitingTime="0.00" speed="10.16" departed="0" arrived="0" entered="151" left="140" laneChangedFrom="0" laneChangedTo="0"/>
        <edge id="2si" sampledSeconds="8765.49" traveltime="56.27" density="41.07" occupancy="4.11" waitingTime="4050.00" speed="4.21" departed="0" arrived="0" entered="157" left="144" laneChangedFrom="0" laneChangedTo="0"/>
        <edge id="3fi" sampledSeconds="6262.03" traveltime="29.55" density="28.00" occupancy="8.40" waitingTime="5.00" speed="8.41" departed="126" arrived="72" entered="90" left="137" laneChangedFrom="0" laneChangedTo="0"/>
        <edge id="3o" sampledSeconds="4635.29" traveltime="48.37" density="10.54" occupancy="3.16" waitingTime="0.00" speed="10.10" departed="0" arrived="0" entered="101" left="90" laneChangedFrom="0" laneChangedTo="0"/>
        <edge id="3si" sampledSeconds="6691.94" traveltime="48.71" density="31.35" occupancy="3.14" waitingTime="2945.00" speed="4.87" departed="0" arrived="0" entered="137" left="124" laneChangedFrom="0" laneChangedTo="0"/>
        <edge id="4fi" sampledSeconds="3136.15" traveltime="22.79" density="14.02" occupancy="4.21" waitingTime="0.00" speed="10.91" departed="0" arrived="0" entered="136" left="136" laneChangedFrom="0" laneChangedTo="0"/>
        <edge id="4o" sampledSeconds="6613.31" traveltime="47.05" density="15.04" occupancy="4.51" waitingTime="0.00" speed="10.39" departed="0" arrived="0" entered="145" left="136" laneChangedFrom="0" laneChangedTo="0"/>
        <edge id="4si" sampledSeconds="5454.35" traveltime="41.04" density="25.56" occupancy="2.56" waitingTime="2011.00" speed="5.78" departed="0" arrived="0" entered="135" left="120" laneChangedFrom="0" laneChangedTo="0"/>
    </interval>
    <interval begin="900.00" end="1000.00" id="dump_900">
        <edge id="1fi" sampledSeconds="885.47" traveltime="27.90" density="35.63" occupancy="10.69" waitingTime="1.00" speed="8.91" departed="11" arrived="3" entered="20" left="29" laneChangedFrom="0" laneChangedTo="0"/>
        <edge id="1o" sampledSeconds="1015.18" traveltime="48.60" density="20.78" occupancy="6.23" waitingTime="0.00" speed="10.06" departed="0" arrived="0" entered="20" left="20" laneChangedFrom="0" laneChangedTo="0"/>
        <edge id="1si" sampledSeconds="4353.66" traveltime="163.04" density="183.58" occupancy="18.36" waitingTime="2333.00" speed="1.45" departed="0" arrived="0" entered="29" left="20" laneChangedFrom="0" laneChangedTo="0"/>
        <edge id="2fi" sampledSeconds="907.27" traveltime="27.58" density="36.51" occupancy="10.95" waitingTime="0.00" speed="9.01" departed="11" arrived="11" entered="21" left="22" laneChangedFrom="0" laneChangedTo="0"/>
        <edge id="2o" sampledSeconds="1038.83" traveltime="47.24" density="21.26" occupancy="6.38" waitingTime="0.00" speed="10.34" departed="0" arrived="0" entered="21" left="21" laneChangedFrom="0" laneChangedTo="0"/>
        <edge id="2si" sampledSeconds="1837.54" traveltime="83.92" density="77.48" occupancy="7.75" waitingTime="1040.00" speed="2.83" departed="0" arrived="0" entered="22" left="16" laneChangedFrom="0" laneChangedTo="0"/>
        <edge id="3fi" sampledSeconds="858.10" traveltime="28.66" density="34.53" occupancy="10.36" waitingTime="1.00" speed="8.67" departed="12" arrived="14" entered="17" left="15" laneChangedFrom="0" laneChangedTo="0"/>
        <edge id="3o" sampledSeconds="850.68" traveltime="47.95" density="17.41" occupancy="5.22" waitingTime="0.00" speed="10.19" departed="0" arrived="0" entered="15" left="17" laneChangedFrom="0" laneChangedTo="0"/>
        <edge id="3si" sampledSeconds="802.98" traveltime="49.76" density="33.86" occupancy="3.39" waitingTime="346.00" speed="4.77" departed="0" arrived="0" entered="15" left="23" laneChangedFrom="0" laneChangedTo="0"/>
        <edge id="4fi" sampledSeconds="369.15" traveltime="22.79" density="14.86" occupancy="4.46" waitingTime="0.00" speed="10.90" departed="0" arrived="0" entered="16" left="16" laneChangedFrom="0" laneChangedTo="0"/>
        <edge id="4o" sampledSeconds="862.45" traveltime="47.23" density="17.65" occupancy="5.29" waitingTime="0.00" speed="10.35" departed="0" arrived="0" entered="18" left="16" laneChangedFrom="0" laneChangedTo="0"/>
        <edge id="4si" sampledSeconds="811.64" traveltime="42.95" density="34.22" occupancy="3.42" waitingTime="276.00" speed="5.52" departed="0" arrived="0" entered="17" left="22" laneChangedFrom="0" laneChangedTo="0"/>
    </interval>
</netstats>
