<?xml version="1.0"?>

<!-- generated on 04/28/10 08:43:09 by SUMO sumo Version dev-SVN-r8163
<configuration>

    <input>
        <net-file value="net.net.xml"/>
        <route-files value="input_routes.rou.xml"/>
        <additional-files value="input_additional.add.xml"/>
    </input>

    <time>
        <begin value="0"/>
        <end value="1000"/>
    </time>

    <report>
        <no-duration-log value="true"/>
        <no-step-log value="true"/>
    </report>

</configuration>
-->

<netstats>
    <interval begin="0.00" end="900.00" id="dump_900">
        <edge id="1fi" sampledSeconds="5065.63" traveltime="28.11" density="22.65" occupancy="11.32" waitingTime="0.00" speed="8.84" departed="80" arrived="18" entered="121" left="176" laneChangedFrom="0" laneChangedTo="0"/>
        <edge id="1o" sampledSeconds="6162.07" traveltime="48.27" density="14.01" occupancy="7.01" waitingTime="0.00" speed="10.12" departed="0" arrived="0" entered="132" left="121" laneChangedFrom="0" laneChangedTo="0"/>
        <edge id="1si" sampledSeconds="16176.63" traveltime="101.59" density="75.79" occupancy="12.63" waitingTime="9096.00" speed="2.33" departed="0" arrived="0" entered="176" left="139" laneChangedFrom="0" laneChangedTo="0"/>
        <edge id="2fi" sampledSeconds="4929.80" traveltime="29.19" density="22.04" occupancy="11.02" waitingTime="0.00" speed="8.51" departed="80" arrived="53" entered="146" left="165" laneChangedFrom="0" laneChangedTo="0"/>
        <edge id="2o" sampledSeconds="7340.60" traveltime="48.37" density="16.69" occupancy="8.35" waitingTime="0.00" speed="10.10" departed="0" arrived="0" entered="157" left="147" laneChangedFrom="0" laneChangedTo="0"/>
        <edge id="2si" sampledSeconds="7991.46" traveltime="49.74" density="37.44" occupancy="6.24" waitingTime="3540.00" speed="4.77" departed="0" arrived="0" entered="164" left="154" laneChangedFrom="0" laneChangedTo="0"/>
        <edge id="3fi" sampledSeconds="4909.20" traveltime="31.27" density="21.95" occupancy="10.98" waitingTime="0.00" speed="7.95" departed="137" arrived="77" entered="101" left="154" laneChangedFrom="0" laneChangedTo="0"/>
        <edge id="3o" sampledSeconds="5102.97" traveltime="48.03" density="11.60" occupancy="5.80" waitingTime="0.00" speed="10.17" departed="0" arrived="0" entered="112" left="101" laneChangedFrom="0" laneChangedTo="0"/>
        <edge id="3si" sampledSeconds="7042.21" traveltime="46.16" density="32.99" occupancy="5.50" waitingTime="3140.00" speed="5.14" departed="0" arrived="0" entered="154" left="138" laneChangedFrom="0" laneChangedTo="0"/>
        <edge id="4fi" sampledSeconds="3317.93" traveltime="22.73" density="14.84" occupancy="7.42" waitingTime="0.00" speed="10.93" departed="0" arrived="0" entered="146" left="146" laneChangedFrom="0" laneChangedTo="0"/>
        <edge id="4o" sampledSeconds="7115.24" traveltime="47.26" density="16.18" occupancy="8.09" waitingTime="0.00" speed="10.34" departed="0" arrived="0" entered="157" left="146" laneChangedFrom="0" laneChangedTo="0"/>
        <edge id="4si" sampledSeconds="5408.39" traveltime="38.10" density="25.34" occupancy="4.22" waitingTime="1957.00" speed="6.22" departed="0" arrived="0" entered="146" left="128" laneChangedFrom="0" laneChangedTo="0"/>
    </interval>
    <interval begin="900.00" end="1000.00" id="dump_900">
        <edge id="1fi" sampledSeconds="786.71" traveltime="27.64" density="31.66" occupancy="15.83" waitingTime="0.00" speed="8.99" departed="10" arrived="6" entered="24" left="31" laneChangedFrom="0" laneChangedTo="0"/>
        <edge id="1o" sampledSeconds="1182.03" traveltime="47.90" density="24.19" occupancy="12.09" waitingTime="0.00" speed="10.20" departed="0" arrived="0" entered="24" left="24" laneChangedFrom="0" laneChangedTo="0"/>
        <edge id="1si" sampledSeconds="4197.28" traveltime="144.37" density="176.99" occupancy="29.50" waitingTime="2370.00" speed="1.64" departed="0" arrived="0" entered="31" left="25" laneChangedFrom="0" laneChangedTo="0"/>
        <edge id="2fi" sampledSeconds="665.19" traveltime="28.77" density="26.77" occupancy="13.38" waitingTime="0.00" speed="8.64" departed="10" arrived="9" entered="21" left="22" laneChangedFrom="0" laneChangedTo="0"/>
        <edge id="2o" sampledSeconds="1132.76" traveltime="47.04" density="23.18" occupancy="11.59" waitingTime="0.00" speed="10.39" departed="0" arrived="0" entered="23" left="20" laneChangedFrom="0" laneChangedTo="0"/>
        <edge id="2si" sampledSeconds="1366.44" traveltime="57.46" density="57.62" occupancy="9.60" waitingTime="684.00" speed="4.13" departed="0" arrived="0" entered="23" left="21" laneChangedFrom="0" laneChangedTo="0"/>
        <edge id="3fi" sampledSeconds="596.51" traveltime="31.50" density="24.00" occupancy="12.00" waitingTime="0.00" speed="7.89" departed="15" arrived="14" entered="17" left="18" laneChangedFrom="0" laneChangedTo="0"/>
        <edge id="3o" sampledSeconds="994.35" traveltime="48.94" density="20.35" occupancy="10.17" waitingTime="0.00" speed="9.98" departed="0" arrived="0" entered="20" left="17" laneChangedFrom="0" laneChangedTo="0"/>
        <edge id="3si" sampledSeconds="898.03" traveltime="49.56" density="37.87" occupancy="6.31" waitingTime="392.00" speed="4.78" departed="0" arrived="0" entered="18" left="27" laneChangedFrom="0" laneChangedTo="0"/>
        <edge id="4fi" sampledSeconds="431.60" traveltime="22.72" density="17.37" occupancy="8.68" waitingTime="0.00" speed="10.94" departed="0" arrived="0" entered="19" left="18" laneChangedFrom="0" laneChangedTo="0"/>
        <edge id="4o" sampledSeconds="1024.92" traveltime="47.23" density="20.97" occupancy="10.49" waitingTime="0.00" speed="10.35" departed="0" arrived="0" entered="21" left="20" laneChangedFrom="0" laneChangedTo="0"/>
        <edge id="4si" sampledSeconds="815.27" traveltime="40.64" density="34.38" occupancy="5.73" waitingTime="272.00" speed="5.83" departed="0" arrived="0" entered="18" left="25" laneChangedFrom="0" laneChangedTo="0"/>
    </interval>
</netstats>
