<?xml version="1.0" encoding="UTF-8"?>

<!-- generated on 2024-07-17 13:51:14 by Eclipse SUMO netedit Version v1_20_0+1264-f5cae912633
<neteditConfiguration xmlns:xsi="http://www.w3.org/2001/XMLSchema-instance" xsi:noNamespaceSchemaLocation="http://sumo.dlr.de/xsd/neteditConfiguration.xsd">

    <input>
        <sumo-net-file value="D:\Netedit_dev\tests\netedit\network\junctions\contextual_menu\connections\net.net.xml"/>
    </input>

    <processing>
        <geometry.min-radius.fix.railways value="false"/>
        <geometry.max-grade.fix value="false"/>
        <offset.disable-normalization value="true"/>
        <lefthand value="0"/>
    </processing>

    <junctions>
        <no-internal-links value="false"/>
        <no-turnarounds value="true"/>
        <junctions.corner-detail value="5"/>
        <junctions.limit-turn-speed value="5.50"/>
        <rectangular-lane-cut value="0"/>
    </junctions>

    <pedestrian>
        <walkingareas value="1"/>
    </pedestrian>

</neteditConfiguration>
-->

<connections version="1.20" xmlns:xsi="http://www.w3.org/2001/XMLSchema-instance" xsi:noNamespaceSchemaLocation="http://sumo.dlr.de/xsd/connections_file.xsd">
    <connection from="-E4" to="E6" fromLane="1" toLane="1"/>

    <connection from="-E5" to="E7" fromLane="1" toLane="1"/>

    <connection from="-E6" to="E4" fromLane="1" toLane="1"/>

    <connection from="-E7" to="E5" fromLane="1" toLane="1"/>

    <connection from="E4"/>

    <connection from="E5"/>

    <connection from="E6"/>

    <connection from="E7"/>

    <connection from="EdgeExternBot" to="EdgeExternTop" fromLane="0" toLane="0"/>

    <connection from="EdgeExternTop" to="EdgeExternBot" fromLane="0" toLane="0"/>

    <crossing node="JunctionCenter" edges="E5 -E5" priority="1" width="3.00" outlineShape="3.20,7.20 -3.20,7.20 -3.31,5.98 -3.64,4.98 -4.20,4.20 4.20,4.20 3.64,4.98 3.31,5.98"/>
    <crossing node="JunctionCenter" edges="E6 -E6" priority="1" width="3.00" outlineShape="7.20,-3.20 7.20,3.20 5.98,3.31 4.98,3.64 4.20,4.20 4.20,-4.20 4.98,-3.64 5.98,-3.31"/>
    <crossing node="JunctionCenter" edges="E7 -E7" priority="1" width="3.00" outlineShape="-3.20,-7.20 3.20,-7.20 3.31,-5.98 3.64,-4.98 4.20,-4.20 -4.20,-4.20 -3.64,-4.98 -3.31,-5.98"/>
    <crossing node="JunctionCenter" edges="E4 -E4" priority="1" width="3.00" outlineShape="-7.20,3.20 -7.20,-3.20 -5.98,-3.31 -4.98,-3.64 -4.20,-4.20 -4.20,4.20 -4.98,3.64 -5.98,3.31"/>
</connections>
