<?xml version="1.0" encoding="UTF-8"?>
<!-- generated on 2020-09-08 08:25:53.753577 by routeSampler.py v1_6_0+2035-666a1c3f7c
  options: -r input_routes.rou.xml -t input_turns.xml -o out.rou.xml -f probability -I
-->
<routes xmlns:xsi="http://www.w3.org/2001/XMLSchema-instance" xsi:noNamespaceSchemaLocation="http://sumo.dlr.de/xsd/routes_file.xsd">
<!-- begin="0.0" end="99.0" -->
    <route id="0" edges="-109.80.00 -11 -11.80.00 3 3.180.00 27 27.80.00 -27"/> <!-- 1 -->
    <route id="1" edges="-109.80.00 -11 -11.80.00 3 3.180.00 27 27.80.00 -27 -27.80.00"/> <!-- 1 -->
    <route id="3" edges="-11 -11.80.00 15 15.180.00 -123 -123.121.42 -120 -120.180.00"/> <!-- 1 -->
    <route id="4" edges="-11.80.00 3 3.180.00 27 27.80.00 55 71"/> <!-- 1 -->
    <route id="5" edges="-120 -120.180.00 -64 -64.80.00 -31 -31.80.00 -23 -23.80.00 -11 -11.80.00 3 3.180.00 -71 -55 -55.80.00"/> <!-- 1 -->
    <route id="6" edges="-123 -123.121.42 131 131.180.00"/> <!-- 1 -->
    <route id="7" edges="-123.121.42 131"/> <!-- 1 -->
    <route id="9" edges="-144 -144.121.42 -131 -131.180.00 131 131.180.00"/> <!-- 2 -->
    <route id="10" edges="-144 -144.121.42 152"/> <!-- 1 -->
    <route id="11" edges="-144.121.42 144 144.121.42 -15 -15.180.00 5"/> <!-- 1 -->
    <route id="12" edges="-148 -148.80.00 -131 -131.180.00 -109 -109.80.00 23 23.80.00 37 -58 -58.121.42"/> <!-- 1 -->
    <route id="14" edges="-15 -15.180.00 15 15.180.00"/> <!-- 1 -->
    <route id="15" edges="-15.180.00 11 11.80.00 23 23.80.00 31 31.80.00 64 64.80.00 120"/> <!-- 1 -->
    <route id="16" edges="-152.80.00 -131 -131.180.00 -109 -109.80.00 23 23.80.00 31 31.80.00 64 64.80.00"/> <!-- 2 -->
    <route id="18" edges="-27 -27.80.00 -3 -3.180.00 15 15.180.00 -144 -144.121.42 144 144.121.42"/> <!-- 1 -->
    <route id="20" edges="-3.180.00 11 11.80.00 23 23.80.00"/> <!-- 1 -->
    <route id="21" edges="-3.180.00 3 3.180.00 -3"/> <!-- 1 -->
    <route id="23" edges="-37 -37.80.00 -23 -23.80.00 109 109.80.00 131 131.180.00 144"/> <!-- 1 -->
    <route id="24" edges="-37.80.00 -23 -23.80.00 -11 -11.80.00 15 15.180.00"/> <!-- 1 -->
    <route id="25" edges="-37.80.00 -23 -23.80.00 109 109.80.00 -109"/> <!-- 1 -->
    <route id="26" edges="-37.80.00 -23 -23.80.00 109 109.80.00 131"/> <!-- 1 -->
    <route id="28" edges="-43 -43.80.00 -27 -27.80.00 -3 -3.180.00 11 11.80.00 109 109.80.00"/> <!-- 1 -->
    <route id="29" edges="-43.80.00 -27 -27.80.00 -3 -3.180.00 15 15.180.00 -144 -144.121.42 152"/> <!-- 1 -->
    <route id="30" edges="-43.80.00 -27 -27.80.00 -71 -55 -55.80.00"/> <!-- 1 -->
    <route id="31" edges="-43.80.00 -27 -27.80.00 27 27.80.00"/> <!-- 1 -->
    <route id="32" edges="-45.80.00 -27 -27.80.00 -3 -3.180.00 11 11.80.00 23 23.80.00 31 31.80.00 60 60.80.00 92"/> <!-- 1 -->
    <route id="33" edges="-45.80.00 -27 -27.80.00 -3 -3.180.00 11 11.80.00 23 23.80.00 37 -58"/> <!-- 1 -->
    <route id="34" edges="-55 -55.80.00 -27 -27.80.00 -3 -3.180.00 11 11.80.00 23 23.80.00 31 31.80.00 58 -37 -37.80.00"/> <!-- 1 -->
    <route id="35" edges="-55 -55.80.00 -27 -27.80.00 -3 -3.180.00 15 15.180.00"/> <!-- 2 -->
    <route id="37" edges="-58 -58.121.42 64 64.80.00 120 120.180.00"/> <!-- 1 -->
    <route id="38" edges="-58.121.42 -31 -31.80.00 -23 -23.80.00 -11 -11.80.00 5"/> <!-- 1 -->
    <route id="39" edges="-60 -60.80.00 -31 -31.80.00 -23 -23.80.00 -11 -11.80.00 3 3.180.00 27 27.80.00 43 68 -45 -45.80.00"/> <!-- 1 -->
    <route id="40" edges="-64 -64.80.00 64 64.80.00 120 120.180.00 -120 -120.180.00"/> <!-- 1 -->
    <route id="41" edges="-64 -64.80.00 64 64.80.00 120 120.180.00 123 123.121.42"/> <!-- 1 -->
    <route id="42" edges="-64.80.00 -31 -31.80.00 -23 -23.80.00 -11 -11.80.00 3 3.180.00 -3"/> <!-- 1 -->
    <route id="43" edges="-71 -55 -55.80.00 -27 -27.80.00 -3 -3.180.00 11 11.80.00 23 23.80.00 31 31.80.00 58"/> <!-- 1 -->
    <route id="44" edges="-71 -55 -55.80.00 -27 -27.80.00 -3 -3.180.00 11 11.80.00 23 23.80.00 31 31.80.00 64 64.80.00 -64"/> <!-- 1 -->
    <route id="45" edges="-75 -75.121.42 -60 -60.80.00 -31 -31.80.00 -23 -23.80.00 -11 -11.80.00 3 3.180.00 -71"/> <!-- 1 -->
    <route id="46" edges="-75.121.42 -60 -60.80.00 -31 -31.80.00 -23 -23.80.00 23"/> <!-- 1 -->
    <route id="47" edges="-79 -79.80.00 -60 -60.80.00 -31 -31.80.00 -23 -23.80.00 -11 -11.80.00 3 3.180.00 -3 -3.180.00"/> <!-- 2 -->
    <route id="48" edges="-79 -79.80.00 -60 -60.80.00 64 64.80.00"/> <!-- 1 -->
    <route id="51" edges="-79.80.00 75 75.121.42"/> <!-- 2 -->
    <route id="52" edges="-79.80.00 75 75.121.42 120 120.180.00 131 131.180.00 144 144.121.42"/> <!-- 1 -->
    <route id="53" edges="-92.180.00 -60 -60.80.00 -31 -31.80.00 37 -58 -58.121.42"/> <!-- 1 -->
    <route id="54" edges="109 109.80.00 -109 -109.80.00 -11 -11.80.00 3 3.180.00 -71 -55 -55.80.00"/> <!-- 1 -->
    <route id="55" edges="109 109.80.00 -109 -109.80.00 -11 -11.80.00 3 3.180.00 27 27.80.00 43 68 -45"/> <!-- 1 -->
    <route id="57" edges="11.80.00 23 23.80.00 31"/> <!-- 2 -->
    <route id="58" edges="120 120.180.00 -109 -109.80.00 -11 -11.80.00 3 3.180.00 -71 -55 -55.80.00"/> <!-- 2 -->
    <route id="60" edges="120 120.180.00 -109 -109.80.00 -11 -11.80.00 3 3.180.00 27 27.80.00 45"/> <!-- 1 -->
    <route id="61" edges="120 120.180.00 -120 -120.180.00 -75 -75.121.42 -60"/> <!-- 1 -->
    <route id="63" edges="123 123.121.42 -15 -15.180.00 3 3.180.00 27 27.80.00 43 68"/> <!-- 1 -->
    <route id="64" edges="131 131.180.00 144 144.121.42 -15 -15.180.00 3 3.180.00 27 27.80.00 55 71"/> <!-- 1 -->
    <route id="65" edges="144 144.121.42 -123 -123.121.42 -120 -120.180.00 -64 -64.80.00 58"/> <!-- 1 -->
    <route id="66" edges="144 144.121.42 -15 -15.180.00 3 3.180.00 27 27.80.00"/> <!-- 2 -->
    <route id="67" edges="144.121.42 -123 -123.121.42 -120 -120.180.00 -64 -64.80.00 58"/> <!-- 1 -->
    <route id="68" edges="15 15.180.00 -123 -123.121.42 -109 -109.80.00 -11"/> <!-- 1 -->
    <route id="69" edges="15 15.180.00 -123 -123.121.42 -120 -120.180.00 -75 -75.121.42 75"/> <!-- 1 -->
    <route id="70" edges="15.180.00 -15 -15.180.00 11 11.80.00 23 23.80.00 31 31.80.00"/> <!-- 1 -->
    <route id="71" edges="23 23.80.00 -23 -23.80.00 109"/> <!-- 1 -->
    <route id="72" edges="23.80.00 31 31.80.00 60 60.80.00 75 75.121.42"/> <!-- 1 -->
    <route id="74" edges="27 27.80.00 -27 -27.80.00 -3 -3.180.00 11 11.80.00 23 23.80.00 31 31.80.00 64 64.80.00 -75"/> <!-- 1 -->
    <route id="75" edges="27 27.80.00 -27 -27.80.00 -3 -3.180.00 11 11.80.00 23 23.80.00 37 -58 -58.121.42"/> <!-- 1 -->
    <route id="76" edges="27.80.00 -27 -27.80.00 -3 -3.180.00 11 11.80.00 23 23.80.00 31 31.80.00 60 60.80.00 75 75.121.42"/> <!-- 1 -->
    <route id="77" edges="3 3.180.00 -3 -3.180.00 11 11.80.00 23 23.80.00 31 31.80.00 64 64.80.00"/> <!-- 1 -->
    <route id="78" edges="3.180.00 -3 -3.180.00 11 11.80.00 23 23.80.00 31 31.80.00 58"/> <!-- 1 -->
    <route id="79" edges="3.180.00 27 27.80.00 55 71"/> <!-- 1 -->
    <route id="80" edges="31 31.80.00 -31 -31.80.00 -23 -23.80.00 -11 -11.80.00 3 3.180.00 27 27.80.00 -27"/> <!-- 2 -->
    <route id="81" edges="31.80.00 58"/> <!-- 1 -->
    <route id="82" edges="37 -58 -58.121.42 -31 -31.80.00 -23 -23.80.00 -11 -11.80.00"/> <!-- 1 -->
    <route id="83" edges="37 -58 -58.121.42 -31 -31.80.00 -23 -23.80.00 109 109.80.00 131 131.180.00 -131 -131.180.00"/> <!-- 1 -->
    <route id="84" edges="43 68 -45 -45.80.00 -27 -27.80.00 -3 -3.180.00 11 11.80.00"/> <!-- 2 -->
    <route id="85" edges="45 -68 -43 -43.80.00 -27 -27.80.00 -3 -3.180.00 11 11.80.00 109 109.80.00 123 123.121.42"/> <!-- 2 -->
    <route id="86" edges="45 -68 -43 -43.80.00 43"/> <!-- 1 -->
    <route id="87" edges="58 -37 -37.80.00 -23"/> <!-- 2 -->
    <route id="89" edges="60.80.00 -60 -60.80.00 -31 -31.80.00 -23 -23.80.00 -11 -11.80.00 5"/> <!-- 1 -->
    <route id="90" edges="60.80.00 75 75.121.42 -75"/> <!-- 1 -->
    <route id="91" edges="64.80.00 -64 -64.80.00 -31 -31.80.00 31"/> <!-- 1 -->
    <route id="92" edges="64.80.00 120 120.180.00 131 131.180.00 -131"/> <!-- 1 -->
    <route id="94" edges="68 -45 -45.80.00 -27 -27.80.00 -71 -55"/> <!-- 1 -->
    <route id="95" edges="71 71.121.42 -3 -3.180.00 11 11.80.00 109 109.80.00 -120"/> <!-- 1 -->
    <route id="97" edges="75 75.121.42 120 120.180.00 -109 -109.80.00 23 23.80.00"/> <!-- 1 -->

    <flow id="64" begin="0.00" end="1.00" probability="1.0" route="64"/>
    <flow id="20" begin="1.06" end="2.06" probability="1.0" route="20"/>
    <flow id="74" begin="2.13" end="3.13" probability="1.0" route="74"/>
    <flow id="90" begin="3.19" end="4.19" probability="1.0" route="90"/>
    <flow id="69" begin="4.26" end="5.26" probability="1.0" route="69"/>
    <flow id="84" begin="5.32" end="94.74" probability="0.022366522366522402" route="84"/>
    <flow id="30" begin="6.39" end="7.39" probability="1.0" route="30"/>
    <flow id="14" begin="7.45" end="8.45" probability="1.0" route="14"/>
    <flow id="33" begin="8.52" end="9.52" probability="1.0" route="33"/>
    <flow id="97" begin="9.58" end="10.58" probability="1.0" route="97"/>
    <flow id="47" begin="10.65" end="12.77" probability="0.9393939393939394" route="47"/>
    <flow id="65" begin="11.71" end="12.71" probability="1.0" route="65"/>
    <flow id="52" begin="13.84" end="14.84" probability="1.0" route="52"/>
    <flow id="3" begin="14.90" end="15.90" probability="1.0" route="3"/>
    <flow id="12" begin="15.97" end="16.97" probability="0.9999999999999982" route="12"/>
    <flow id="91" begin="17.03" end="18.03" probability="1.0" route="91"/>
    <flow id="18" begin="18.10" end="19.10" probability="1.0" route="18"/>
    <flow id="38" begin="19.16" end="20.16" probability="1.0" route="38"/>
    <flow id="0" begin="20.23" end="21.23" probability="1.0" route="0"/>
    <flow id="75" begin="21.29" end="22.29" probability="1.0" route="75"/>
    <flow id="23" begin="22.35" end="23.35" probability="1.0" route="23"/>
    <flow id="15" begin="23.42" end="24.42" probability="1.0" route="15"/>
    <flow id="16" begin="24.48" end="31.94" probability="0.26839826839826886" route="16"/>
    <flow id="87" begin="25.55" end="77.71" probability="0.038342609771181264" route="87"/>
    <flow id="28" begin="26.61" end="27.61" probability="1.0" route="28"/>
    <flow id="95" begin="27.68" end="28.68" probability="1.0" route="95"/>
    <flow id="58" begin="28.74" end="59.61" probability="0.06478578892372007" route="58"/>
    <flow id="77" begin="29.81" end="30.81" probability="1.0" route="77"/>
    <flow id="83" begin="30.87" end="31.87" probability="1.0" route="83"/>
    <flow id="26" begin="33.00" end="34.00" probability="1.0" route="26"/>
    <flow id="35" begin="34.06" end="96.87" probability="0.03184386235233699" route="35"/>
    <flow id="9" begin="35.13" end="74.52" probability="0.050778050778050865" route="9"/>
    <flow id="54" begin="36.19" end="37.19" probability="1.0" route="54"/>
    <flow id="21" begin="37.26" end="38.26" probability="1.0" route="21"/>
    <flow id="41" begin="38.32" end="39.32" probability="1.0" route="41"/>
    <flow id="51" begin="39.39" end="42.58" probability="0.6262626262626273" route="51"/>
    <flow id="5" begin="40.45" end="41.45" probability="1.0" route="5"/>
    <flow id="57" begin="41.52" end="85.16" probability="0.04582409460458249" route="57"/>
    <flow id="70" begin="43.65" end="44.65" probability="1.0" route="70"/>
    <flow id="24" begin="44.71" end="45.71" probability="1.0" route="24"/>
    <flow id="94" begin="45.77" end="46.77" probability="1.0" route="94"/>
    <flow id="61" begin="46.84" end="47.84" probability="1.0" route="61"/>
    <flow id="80" begin="47.90" end="83.03" probability="0.056932966023875216" route="80"/>
    <flow id="4" begin="48.97" end="49.97" probability="1.0" route="4"/>
    <flow id="82" begin="50.03" end="51.03" probability="1.0" route="82"/>
    <flow id="78" begin="51.10" end="52.10" probability="1.0" route="78"/>
    <flow id="44" begin="52.16" end="53.16" probability="1.0" route="44"/>
    <flow id="48" begin="53.23" end="54.23" probability="1.0" route="48"/>
    <flow id="63" begin="54.29" end="55.29" probability="1.0" route="63"/>
    <flow id="81" begin="55.35" end="56.35" probability="1.0" route="81"/>
    <flow id="6" begin="56.42" end="57.42" probability="1.0" route="6"/>
    <flow id="85" begin="57.48" end="93.68" probability="0.055258467023173004" route="85"/>
    <flow id="60" begin="58.55" end="59.55" probability="1.0" route="60"/>
    <flow id="32" begin="60.68" end="61.68" probability="1.0" route="32"/>
    <flow id="86" begin="61.74" end="62.74" probability="1.0" route="86"/>
    <flow id="10" begin="62.81" end="63.81" probability="1.0" route="10"/>
    <flow id="45" begin="63.87" end="64.87" probability="1.0" route="45"/>
    <flow id="43" begin="64.94" end="65.94" probability="1.0" route="43"/>
    <flow id="39" begin="66.00" end="67.00" probability="1.0" route="39"/>
    <flow id="66" begin="67.06" end="71.32" probability="0.4696969696969705" route="66"/>
    <flow id="37" begin="68.13" end="69.13" probability="1.0" route="37"/>
    <flow id="25" begin="69.19" end="70.19" probability="1.0" route="25"/>
    <flow id="31" begin="70.26" end="71.26" probability="1.0" route="31"/>
    <flow id="29" begin="72.39" end="73.39" probability="1.0" route="29"/>
    <flow id="92" begin="73.45" end="74.45" probability="1.0" route="92"/>
    <flow id="68" begin="75.58" end="76.58" probability="1.0" route="68"/>
    <flow id="55" begin="76.65" end="77.65" probability="1.0" route="55"/>
    <flow id="42" begin="78.77" end="79.77" probability="1.0" route="42"/>
    <flow id="40" begin="79.84" end="80.84" probability="1.0" route="40"/>
    <flow id="34" begin="80.90" end="81.90" probability="1.0" route="34"/>
    <flow id="7" begin="81.97" end="82.97" probability="1.0" route="7"/>
    <flow id="79" begin="84.10" end="85.10" probability="1.0" route="79"/>
    <flow id="89" begin="86.23" end="87.23" probability="1.0" route="89"/>
    <flow id="76" begin="87.29" end="88.29" probability="1.0" route="76"/>
    <flow id="72" begin="88.35" end="89.35" probability="1.0" route="72"/>
    <flow id="53" begin="89.42" end="90.42" probability="1.0" route="53"/>
    <flow id="1" begin="90.48" end="91.48" probability="1.0" route="1"/>
    <flow id="46" begin="91.55" end="92.55" probability="1.0" route="46"/>
    <flow id="11" begin="92.61" end="93.61" probability="1.0" route="11"/>
    <flow id="67" begin="95.81" end="96.81" probability="1.0" route="67"/>
    <flow id="71" begin="97.94" end="98.94" probability="1.0" route="71"/>
</routes>
