<?xml version="1.0" encoding="UTF-8"?>
<!-- generated on 2020-03-12 13:13:10.930966 by routeSampler.py v1_5_0+0680-a5d3f0f
  options: -r input_routes.rou.xml -t input_turns.xml -o out.rou.xml -f probability -I
-->
<routes xmlns:xsi="http://www.w3.org/2001/XMLSchema-instance" xsi:noNamespaceSchemaLocation="http://sumo.dlr.de/xsd/routes_file.xsd">
<!-- begin="0.0" end="99.0" -->
    <route id="0" edges="-109.80.00 -11 -11.80.00 3 3.180.00 27 27.80.00 -27"/> <!-- 3 -->
    <route id="2" edges="-109.80.00 23 23.80.00 31 31.80.00 -31 -31.80.00"/> <!-- 1 -->
    <route id="3" edges="-11 -11.80.00 15 15.180.00 -123 -123.121.42 -120 -120.180.00"/> <!-- 1 -->
    <route id="5" edges="-120 -120.180.00 -64 -64.80.00 -31 -31.80.00 -23 -23.80.00 -11 -11.80.00 3 3.180.00 -71 -55 -55.80.00"/> <!-- 1 -->
    <route id="6" edges="-123 -123.121.42 131 131.180.00"/> <!-- 2 -->
    <route id="8" edges="-131.180.00 -109 -109.80.00 -11 -11.80.00 3 3.180.00 -71 -55 -55.80.00"/> <!-- 2 -->
    <route id="10" edges="-144 -144.121.42 152"/> <!-- 1 -->
    <route id="11" edges="-144.121.42 144 144.121.42 -15 -15.180.00 5"/> <!-- 1 -->
    <route id="13" edges="-148 -148.80.00 144 144.121.42 -15 -15.180.00 3 3.180.00 -3"/> <!-- 1 -->
    <route id="14" edges="-15 -15.180.00 15 15.180.00"/> <!-- 1 -->
    <route id="15" edges="-15.180.00 11 11.80.00 23 23.80.00 31 31.80.00 64 64.80.00 120"/> <!-- 1 -->
    <route id="16" edges="-152.80.00 -131 -131.180.00 -109 -109.80.00 23 23.80.00 31 31.80.00 64 64.80.00"/> <!-- 1 -->
    <route id="17" edges="-152.80.00 -131 -131.180.00 131"/> <!-- 1 -->
    <route id="19" edges="-27.80.00 27 27.80.00 45 -68 -43 -43.80.00"/> <!-- 1 -->
    <route id="20" edges="-3.180.00 11 11.80.00 23 23.80.00"/> <!-- 1 -->
    <route id="21" edges="-3.180.00 3 3.180.00 -3"/> <!-- 1 -->
    <route id="23" edges="-37 -37.80.00 -23 -23.80.00 109 109.80.00 131 131.180.00 144"/> <!-- 1 -->
    <route id="24" edges="-37.80.00 -23 -23.80.00 -11 -11.80.00 15 15.180.00"/> <!-- 1 -->
    <route id="25" edges="-37.80.00 -23 -23.80.00 109 109.80.00 -109"/> <!-- 1 -->
    <route id="26" edges="-37.80.00 -23 -23.80.00 109 109.80.00 131"/> <!-- 1 -->
    <route id="28" edges="-43 -43.80.00 -27 -27.80.00 -3 -3.180.00 11 11.80.00 109 109.80.00"/> <!-- 1 -->
    <route id="29" edges="-43.80.00 -27 -27.80.00 -3 -3.180.00 15 15.180.00 -144 -144.121.42 152"/> <!-- 1 -->
    <route id="30" edges="-43.80.00 -27 -27.80.00 -71 -55 -55.80.00"/> <!-- 1 -->
    <route id="31" edges="-43.80.00 -27 -27.80.00 27 27.80.00"/> <!-- 1 -->
    <route id="32" edges="-45.80.00 -27 -27.80.00 -3 -3.180.00 11 11.80.00 23 23.80.00 31 31.80.00 60 60.80.00 92"/> <!-- 1 -->
    <route id="33" edges="-45.80.00 -27 -27.80.00 -3 -3.180.00 11 11.80.00 23 23.80.00 37 -58"/> <!-- 1 -->
    <route id="34" edges="-55 -55.80.00 -27 -27.80.00 -3 -3.180.00 11 11.80.00 23 23.80.00 31 31.80.00 58 -37 -37.80.00"/> <!-- 1 -->
    <route id="36" edges="-55 -55.80.00 -27 -27.80.00 -3 -3.180.00 15 15.180.00 -144 -144.121.42 -131"/> <!-- 2 -->
    <route id="37" edges="-58 -58.121.42 64 64.80.00 120 120.180.00"/> <!-- 1 -->
    <route id="39" edges="-60 -60.80.00 -31 -31.80.00 -23 -23.80.00 -11 -11.80.00 3 3.180.00 27 27.80.00 43 68 -45 -45.80.00"/> <!-- 2 -->
    <route id="40" edges="-64 -64.80.00 64 64.80.00 120 120.180.00 -120 -120.180.00"/> <!-- 1 -->
    <route id="41" edges="-64 -64.80.00 64 64.80.00 120 120.180.00 123 123.121.42"/> <!-- 1 -->
    <route id="42" edges="-64.80.00 -31 -31.80.00 -23 -23.80.00 -11 -11.80.00 3 3.180.00 -3"/> <!-- 1 -->
    <route id="43" edges="-71 -55 -55.80.00 -27 -27.80.00 -3 -3.180.00 11 11.80.00 23 23.80.00 31 31.80.00 58"/> <!-- 1 -->
    <route id="44" edges="-71 -55 -55.80.00 -27 -27.80.00 -3 -3.180.00 11 11.80.00 23 23.80.00 31 31.80.00 64 64.80.00 -64"/> <!-- 1 -->
    <route id="45" edges="-75 -75.121.42 -60 -60.80.00 -31 -31.80.00 -23 -23.80.00 -11 -11.80.00 3 3.180.00 -71"/> <!-- 1 -->
    <route id="46" edges="-75.121.42 -60 -60.80.00 -31 -31.80.00 -23 -23.80.00 23"/> <!-- 1 -->
    <route id="47" edges="-79 -79.80.00 -60 -60.80.00 -31 -31.80.00 -23 -23.80.00 -11 -11.80.00 3 3.180.00 -3 -3.180.00"/> <!-- 1 -->
    <route id="48" edges="-79 -79.80.00 -60 -60.80.00 64 64.80.00"/> <!-- 1 -->
    <route id="49" edges="-79 -79.80.00 75 75.121.42 120 120.180.00 131 131.180.00 -131 -131.180.00"/> <!-- 1 -->
    <route id="51" edges="-79.80.00 75 75.121.42"/> <!-- 1 -->
    <route id="53" edges="-92.180.00 -60 -60.80.00 -31 -31.80.00 37 -58 -58.121.42"/> <!-- 1 -->
    <route id="55" edges="109 109.80.00 -109 -109.80.00 -11 -11.80.00 3 3.180.00 27 27.80.00 43 68 -45"/> <!-- 1 -->
    <route id="57" edges="11.80.00 23 23.80.00 31"/> <!-- 1 -->
    <route id="58" edges="120 120.180.00 -109 -109.80.00 -11 -11.80.00 3 3.180.00 -71 -55 -55.80.00"/> <!-- 1 -->
    <route id="60" edges="120 120.180.00 -109 -109.80.00 -11 -11.80.00 3 3.180.00 27 27.80.00 45"/> <!-- 1 -->
    <route id="61" edges="120 120.180.00 -120 -120.180.00 -75 -75.121.42 -60"/> <!-- 1 -->
    <route id="63" edges="123 123.121.42 -15 -15.180.00 3 3.180.00 27 27.80.00 43 68"/> <!-- 1 -->
    <route id="64" edges="131 131.180.00 144 144.121.42 -15 -15.180.00 3 3.180.00 27 27.80.00 55 71"/> <!-- 2 -->
    <route id="65" edges="144 144.121.42 -123 -123.121.42 -120 -120.180.00 -64 -64.80.00 58"/> <!-- 1 -->
    <route id="67" edges="144.121.42 -123 -123.121.42 -120 -120.180.00 -64 -64.80.00 58"/> <!-- 1 -->
    <route id="69" edges="15 15.180.00 -123 -123.121.42 -120 -120.180.00 -75 -75.121.42 75"/> <!-- 1 -->
    <route id="70" edges="15.180.00 -15 -15.180.00 11 11.80.00 23 23.80.00 31 31.80.00"/> <!-- 1 -->
    <route id="71" edges="23 23.80.00 -23 -23.80.00 109"/> <!-- 1 -->
    <route id="74" edges="27 27.80.00 -27 -27.80.00 -3 -3.180.00 11 11.80.00 23 23.80.00 31 31.80.00 64 64.80.00 -75"/> <!-- 1 -->
    <route id="75" edges="27 27.80.00 -27 -27.80.00 -3 -3.180.00 11 11.80.00 23 23.80.00 37 -58 -58.121.42"/> <!-- 1 -->
    <route id="76" edges="27.80.00 -27 -27.80.00 -3 -3.180.00 11 11.80.00 23 23.80.00 31 31.80.00 60 60.80.00 75 75.121.42"/> <!-- 2 -->
    <route id="77" edges="3 3.180.00 -3 -3.180.00 11 11.80.00 23 23.80.00 31 31.80.00 64 64.80.00"/> <!-- 2 -->
    <route id="79" edges="3.180.00 27 27.80.00 55 71"/> <!-- 1 -->
    <route id="81" edges="31.80.00 58"/> <!-- 2 -->
    <route id="82" edges="37 -58 -58.121.42 -31 -31.80.00 -23 -23.80.00 -11 -11.80.00"/> <!-- 1 -->
    <route id="83" edges="37 -58 -58.121.42 -31 -31.80.00 -23 -23.80.00 109 109.80.00 131 131.180.00 -131 -131.180.00"/> <!-- 2 -->
    <route id="85" edges="45 -68 -43 -43.80.00 -27 -27.80.00 -3 -3.180.00 11 11.80.00 109 109.80.00 123 123.121.42"/> <!-- 2 -->
    <route id="88" edges="58 -37 -37.80.00 -23 -23.80.00 -11 -11.80.00 3 3.180.00"/> <!-- 2 -->
    <route id="89" edges="60.80.00 -60 -60.80.00 -31 -31.80.00 -23 -23.80.00 -11 -11.80.00 5"/> <!-- 1 -->
    <route id="90" edges="60.80.00 75 75.121.42 -75"/> <!-- 1 -->
    <route id="91" edges="64.80.00 -64 -64.80.00 -31 -31.80.00 31"/> <!-- 1 -->
    <route id="93" edges="68 -45 -45.80.00 -27 -27.80.00 -3 -3.180.00 11 11.80.00 -11"/> <!-- 1 -->
    <route id="94" edges="68 -45 -45.80.00 -27 -27.80.00 -71 -55"/> <!-- 1 -->
    <route id="95" edges="71 71.121.42 -3 -3.180.00 11 11.80.00 109 109.80.00 -120"/> <!-- 1 -->
    <route id="96" edges="71.121.42 -3 -3.180.00 15 15.180.00"/> <!-- 1 -->
    <route id="97" edges="75 75.121.42 120 120.180.00 -109 -109.80.00 23 23.80.00"/> <!-- 2 -->

    <flow id="74" begin="0.00" end="1.00" probability="1.0" route="74"/>
    <flow id="30" begin="1.15" end="2.15" probability="1.0" route="30"/>
    <flow id="81" begin="2.30" end="42.59" probability="0.0496392496392" route="81"/>
    <flow id="2" begin="3.45" end="4.45" probability="1.0" route="2"/>
    <flow id="10" begin="4.60" end="5.60" probability="1.0" route="10"/>
    <flow id="97" begin="5.76" end="63.31" probability="0.0347474747475" route="97"/>
    <flow id="77" begin="6.91" end="20.72" probability="0.144781144781" route="77"/>
    <flow id="88" begin="8.06" end="56.41" probability="0.041366041366" route="88"/>
    <flow id="40" begin="9.21" end="10.21" probability="1.0" route="40"/>
    <flow id="39" begin="10.36" end="96.70" probability="0.023164983165" route="39"/>
    <flow id="75" begin="11.51" end="12.51" probability="1.0" route="75"/>
    <flow id="83" begin="12.66" end="90.94" probability="0.0255496137849" route="83"/>
    <flow id="46" begin="13.81" end="14.81" probability="1.0" route="46"/>
    <flow id="69" begin="14.97" end="15.97" probability="1.0" route="69"/>
    <flow id="17" begin="16.12" end="17.12" probability="1.0" route="17"/>
    <flow id="58" begin="17.27" end="18.27" probability="1.0" route="58"/>
    <flow id="76" begin="18.42" end="50.65" probability="0.0620490620491" route="76"/>
    <flow id="16" begin="19.57" end="20.57" probability="1.0" route="16"/>
    <flow id="3" begin="21.87" end="22.87" probability="1.0" route="3"/>
    <flow id="41" begin="23.02" end="24.02" probability="1.0" route="41"/>
    <flow id="8" begin="24.17" end="87.49" probability="0.0315886134068" route="8"/>
    <flow id="42" begin="25.33" end="26.33" probability="1.0" route="42"/>
    <flow id="96" begin="26.48" end="27.48" probability="1.0" route="96"/>
    <flow id="67" begin="27.63" end="28.63" probability="1.0" route="67"/>
    <flow id="47" begin="28.78" end="29.78" probability="1.0" route="47"/>
    <flow id="23" begin="29.93" end="30.93" probability="1.0" route="23"/>
    <flow id="85" begin="31.08" end="49.50" probability="0.108585858586" route="85"/>
    <flow id="36" begin="32.23" end="75.98" probability="0.0457203615098" route="36"/>
    <flow id="89" begin="33.38" end="34.38" probability="1.0" route="89"/>
    <flow id="14" begin="34.53" end="35.53" probability="1.0" route="14"/>
    <flow id="82" begin="35.69" end="36.69" probability="1.0" route="82"/>
    <flow id="64" begin="36.84" end="51.80" probability="0.133644133644" route="64"/>
    <flow id="48" begin="37.99" end="38.99" probability="1.0" route="48"/>
    <flow id="49" begin="39.14" end="40.14" probability="1.0" route="49"/>
    <flow id="29" begin="40.29" end="41.29" probability="1.0" route="29"/>
    <flow id="60" begin="41.44" end="42.44" probability="1.0" route="60"/>
    <flow id="44" begin="43.74" end="44.74" probability="1.0" route="44"/>
    <flow id="94" begin="44.90" end="45.90" probability="1.0" route="94"/>
    <flow id="43" begin="46.05" end="47.05" probability="1.0" route="43"/>
    <flow id="26" begin="47.20" end="48.20" probability="1.0" route="26"/>
    <flow id="31" begin="48.35" end="49.35" probability="1.0" route="31"/>
    <flow id="70" begin="52.95" end="53.95" probability="1.0" route="70"/>
    <flow id="20" begin="54.10" end="55.10" probability="1.0" route="20"/>
    <flow id="0" begin="55.26" end="64.47" probability="0.325757575758" route="0"/>
    <flow id="63" begin="57.56" end="58.56" probability="1.0" route="63"/>
    <flow id="28" begin="59.86" end="60.86" probability="1.0" route="28"/>
    <flow id="95" begin="61.01" end="62.01" probability="1.0" route="95"/>
    <flow id="33" begin="62.16" end="63.16" probability="1.0" route="33"/>
    <flow id="19" begin="65.62" end="66.62" probability="1.0" route="19"/>
    <flow id="13" begin="66.77" end="67.77" probability="1.0" route="13"/>
    <flow id="65" begin="67.92" end="68.92" probability="1.0" route="65"/>
    <flow id="53" begin="69.07" end="70.07" probability="1.0" route="53"/>
    <flow id="79" begin="70.22" end="71.22" probability="1.0" route="79"/>
    <flow id="6" begin="71.37" end="72.52" number="2" route="6"/>
    <flow id="11" begin="73.67" end="74.67" probability="1.0" route="11"/>
    <flow id="21" begin="74.83" end="75.83" probability="1.0" route="21"/>
    <flow id="15" begin="77.13" end="78.13" probability="1.0" route="15"/>
    <flow id="91" begin="78.28" end="79.28" probability="1.0" route="91"/>
    <flow id="61" begin="79.43" end="80.43" probability="1.0" route="61"/>
    <flow id="71" begin="80.58" end="81.58" probability="1.0" route="71"/>
    <flow id="32" begin="81.73" end="82.73" probability="1.0" route="32"/>
    <flow id="5" begin="82.88" end="83.88" probability="1.0" route="5"/>
    <flow id="45" begin="84.03" end="85.03" probability="1.0" route="45"/>
    <flow id="24" begin="85.19" end="86.19" probability="1.0" route="24"/>
    <flow id="93" begin="86.34" end="87.34" probability="1.0" route="93"/>
    <flow id="90" begin="88.64" end="89.64" probability="1.0" route="90"/>
    <flow id="34" begin="89.79" end="90.79" probability="1.0" route="34"/>
    <flow id="55" begin="92.09" end="93.09" probability="1.0" route="55"/>
    <flow id="51" begin="93.24" end="94.24" probability="1.0" route="51"/>
    <flow id="25" begin="94.40" end="95.40" probability="1.0" route="25"/>
    <flow id="57" begin="95.55" end="96.55" probability="1.0" route="57"/>
    <flow id="37" begin="97.85" end="98.85" probability="1.0" route="37"/>
</routes>
