<?xml version="1.0" encoding="UTF-8"?>

<!-- generated on 2024-07-01 15:56:37 by Eclipse SUMO netedit Version v1_20_0+0930-542f1297b48
This data file and the accompanying materials
are made available under the terms of the Eclipse Public License v2.0
which accompanies this distribution, and is available at
http://www.eclipse.org/legal/epl-v20.html
This file may also be made available under the following Secondary
Licenses when the conditions for such availability set forth in the Eclipse
Public License 2.0 are satisfied: GNU General Public License, version 2
or later which is available at
https://www.gnu.org/licenses/old-licenses/gpl-2.0-standalone.html
SPDX-License-Identifier: EPL-2.0 OR GPL-2.0-or-later
<neteditConfiguration xmlns:xsi="http://www.w3.org/2001/XMLSchema-instance" xsi:noNamespaceSchemaLocation="http://sumo.dlr.de/xsd/neteditConfiguration.xsd">

    <input>
        <additional-files value="C:\Users\alva_pa\.texttest\tmp\netedit.gui.01Jul154112.13676\netedit.gui\network\crossings\without_tls\create_nosidewalks\single_crossing\additionals.add.xml"/>
        <route-files value="C:\Users\alva_pa\.texttest\tmp\netedit.gui.01Jul154112.13676\netedit.gui\network\crossings\without_tls\create_nosidewalks\single_crossing\routes.rou.xml"/>
        <data-files value="C:\Users\alva_pa\.texttest\tmp\netedit.gui.01Jul154112.13676\netedit.gui\network\crossings\without_tls\create_nosidewalks\single_crossing\datas.dat.xml"/>
        <sumo-net-file value="C:\Users\alva_pa\.texttest\tmp\netedit.gui.01Jul154112.13676\netedit.gui\network\crossings\without_tls\create_nosidewalks\single_crossing\net.net.xml"/>
    </input>

    <output>
        <write-license value="true"/>
        <output-file value="C:\Users\alva_pa\.texttest\tmp\netedit.gui.01Jul154112.13676\netedit.gui\network\crossings\without_tls\create_nosidewalks\single_crossing\net.net.xml"/>
    </output>

    <processing>
        <geometry.min-radius.fix.railways value="false"/>
        <geometry.max-grade.fix value="false"/>
        <offset.disable-normalization value="true"/>
        <lefthand value="0"/>
    </processing>

    <junctions>
        <no-turnarounds value="true"/>
        <junctions.corner-detail value="5"/>
        <junctions.limit-turn-speed value="5.50"/>
        <rectangular-lane-cut value="0"/>
    </junctions>

    <pedestrian>
        <walkingareas value="0"/>
    </pedestrian>

    <netedit>
        <ignore-supermode-question value="true"/>
    </netedit>

    <visualisation>
        <gui-settings-file value="C:\Users\alva_pa\.texttest\tmp\netedit.gui.01Jul154112.13676\netedit.gui\network\crossings\without_tls\create_nosidewalks\single_crossing\gui-settings.xml"/>
        <window-size value="1280, 720"/>
        <window-pos value="50,50"/>
        <gui-testing value="true"/>
        <gui-testing.setting-output value="C:\Users\alva_pa\.texttest\tmp\netedit.gui.01Jul154112.13676\netedit.gui\network\crossings\without_tls\create_nosidewalks\single_crossing\guisettingsoutput.xml"/>
    </visualisation>

    <report>
        <no-warnings value="true"/>
        <error-log value="C:\Users\alva_pa\.texttest\tmp\netedit.gui.01Jul154112.13676\netedit.gui\network\crossings\without_tls\create_nosidewalks\single_crossing\log.txt"/>
    </report>

</neteditConfiguration>
-->

<net version="1.20" junctionCornerDetail="5" limitTurnSpeed="5.50" xmlns:xsi="http://www.w3.org/2001/XMLSchema-instance" xsi:noNamespaceSchemaLocation="http://sumo.dlr.de/xsd/net_file.xsd">

    <location netOffset="0.00,0.00" convBoundary="-60.00,-30.00,60.00,30.00" origBoundary="-10000000000.000000,-10000000000.000000,10000000000.000000,10000000000.000000" projParameter="+proj=merc +a=6378137 +b=6378137 +lat_ts=0.0 +lon_0=0.0 +x_0=0.0 +y_0=0 +k=1.0 +units=m +nadgrids=@null +wktext +no_defs"/>

    <edge id=":Junction5_0" function="internal">
        <lane id=":Junction5_0_0" index="0" allow="bicycle" speed="5.01" length="5.64" width="1.00" shape="-3.50,7.00 -3.72,5.47 -4.38,4.37 -5.47,3.72 -7.00,3.50"/>
    </edge>
    <edge id=":Junction5_1" function="internal">
        <lane id=":Junction5_1_0" index="0" allow="bicycle" speed="13.89" length="14.00" width="1.00" shape="-3.50,7.00 -3.50,-7.00"/>
    </edge>
    <edge id=":Junction5_2" function="internal">
        <lane id=":Junction5_2_0" index="0" disallow="pedestrian" speed="6.43" length="0.77" width="3.00" shape="-1.50,7.00 -1.61,6.24"/>
    </edge>
    <edge id=":Junction5_3" function="internal">
        <lane id=":Junction5_3_0" index="0" disallow="pedestrian" speed="13.89" length="14.00" width="3.00" shape="-1.50,7.00 -1.50,-7.00"/>
    </edge>
    <edge id=":Junction5_16" function="internal">
        <lane id=":Junction5_16_0" index="0" disallow="pedestrian" speed="6.43" length="8.10" width="3.00" shape="-1.61,6.24 -1.84,4.59 -2.88,2.87 -4.59,1.84 -7.00,1.50"/>
    </edge>
    <edge id=":Junction5_4" function="internal">
        <lane id=":Junction5_4_0" index="0" allow="bicycle" speed="5.01" length="5.64" width="1.00" shape="7.00,3.50 5.47,3.72 4.38,4.37 3.72,5.47 3.50,7.00"/>
    </edge>
    <edge id=":Junction5_5" function="internal">
        <lane id=":Junction5_5_0" index="0" allow="bicycle" speed="13.89" length="14.00" width="1.00" shape="7.00,3.50 -7.00,3.50"/>
    </edge>
    <edge id=":Junction5_6" function="internal">
        <lane id=":Junction5_6_0" index="0" disallow="pedestrian" speed="6.43" length="8.87" width="3.00" shape="7.00,1.50 4.59,1.84 2.88,2.87 1.84,4.59 1.50,7.00"/>
    </edge>
    <edge id=":Junction5_7" function="internal">
        <lane id=":Junction5_7_0" index="0" disallow="pedestrian" speed="13.89" length="14.00" width="3.00" shape="7.00,1.50 -7.00,1.50"/>
    </edge>
    <edge id=":Junction5_8" function="internal">
        <lane id=":Junction5_8_0" index="0" allow="bicycle" speed="5.01" length="5.64" width="1.00" shape="3.50,-7.00 3.72,-5.47 4.38,-4.37 5.47,-3.72 7.00,-3.50"/>
    </edge>
    <edge id=":Junction5_9" function="internal">
        <lane id=":Junction5_9_0" index="0" allow="bicycle" speed="13.89" length="14.00" width="1.00" shape="3.50,-7.00 3.50,7.00"/>
    </edge>
    <edge id=":Junction5_10" function="internal">
        <lane id=":Junction5_10_0" index="0" disallow="pedestrian" speed="6.43" length="0.77" width="3.00" shape="1.50,-7.00 1.61,-6.24"/>
    </edge>
    <edge id=":Junction5_11" function="internal">
        <lane id=":Junction5_11_0" index="0" disallow="pedestrian" speed="13.89" length="14.00" width="3.00" shape="1.50,-7.00 1.50,7.00"/>
    </edge>
    <edge id=":Junction5_17" function="internal">
        <lane id=":Junction5_17_0" index="0" disallow="pedestrian" speed="6.43" length="8.10" width="3.00" shape="1.61,-6.24 1.84,-4.59 2.88,-2.87 4.59,-1.84 7.00,-1.50"/>
    </edge>
    <edge id=":Junction5_12" function="internal">
        <lane id=":Junction5_12_0" index="0" allow="bicycle" speed="5.01" length="5.64" width="1.00" shape="-7.00,-3.50 -5.47,-3.72 -4.38,-4.37 -3.72,-5.47 -3.50,-7.00"/>
    </edge>
    <edge id=":Junction5_13" function="internal">
        <lane id=":Junction5_13_0" index="0" allow="bicycle" speed="13.89" length="14.00" width="1.00" shape="-7.00,-3.50 7.00,-3.50"/>
    </edge>
    <edge id=":Junction5_14" function="internal">
        <lane id=":Junction5_14_0" index="0" disallow="pedestrian" speed="6.43" length="8.87" width="3.00" shape="-7.00,-1.50 -4.59,-1.84 -2.88,-2.87 -1.84,-4.59 -1.50,-7.00"/>
    </edge>
    <edge id=":Junction5_15" function="internal">
        <lane id=":Junction5_15_0" index="0" disallow="pedestrian" speed="13.89" length="14.00" width="3.00" shape="-7.00,-1.50 7.00,-1.50"/>
    </edge>
    <edge id=":JunctionExtern0_0" function="internal">
        <lane id=":JunctionExtern0_0_0" index="0" disallow="pedestrian" speed="3.53" length="4.38" width="3.00" shape="-60.00,1.50 -61.12,0.75 -61.50,0.00 -61.12,-0.75 -60.00,-1.50"/>
    </edge>
    <edge id=":JunctionExtern1_0" function="internal">
        <lane id=":JunctionExtern1_0_0" index="0" disallow="pedestrian" speed="3.53" length="4.38" width="3.00" shape="60.00,-1.50 61.12,-0.75 61.50,0.00 61.12,0.75 60.00,1.50"/>
    </edge>

    <edge id="-E0" from="J0" to="Junction5" priority="-1">
        <lane id="-E0_0" index="0" allow="bicycle" speed="13.89" length="18.00" width="1.00" shape="-3.50,25.00 -3.50,7.00"/>
        <lane id="-E0_1" index="1" disallow="pedestrian" speed="13.89" length="18.00" width="3.00" shape="-1.50,25.00 -1.50,7.00"/>
    </edge>
    <edge id="-E1" from="J1" to="Junction5" priority="-1">
        <lane id="-E1_0" index="0" allow="bicycle" speed="13.89" length="23.00" width="1.00" shape="-30.00,-3.50 -7.00,-3.50"/>
        <lane id="-E1_1" index="1" disallow="pedestrian" speed="13.89" length="23.00" width="3.00" shape="-30.00,-1.50 -7.00,-1.50"/>
    </edge>
    <edge id="-E2" from="J2" to="Junction5" priority="-1">
        <lane id="-E2_0" index="0" allow="bicycle" speed="13.89" length="23.00" width="1.00" shape="30.00,3.50 7.00,3.50"/>
        <lane id="-E2_1" index="1" disallow="pedestrian" speed="13.89" length="23.00" width="3.00" shape="30.00,1.50 7.00,1.50"/>
    </edge>
    <edge id="-E3" from="J3" to="Junction5" priority="-1">
        <lane id="-E3_0" index="0" allow="bicycle" speed="13.89" length="18.00" width="1.00" shape="3.50,-25.00 3.50,-7.00"/>
        <lane id="-E3_1" index="1" disallow="pedestrian" speed="13.89" length="18.00" width="3.00" shape="1.50,-25.00 1.50,-7.00"/>
    </edge>
    <edge id="E0" from="Junction5" to="J0" priority="-1">
        <lane id="E0_0" index="0" allow="bicycle" speed="13.89" length="18.00" width="1.00" shape="3.50,7.00 3.50,25.00"/>
        <lane id="E0_1" index="1" disallow="pedestrian" speed="13.89" length="18.00" width="3.00" shape="1.50,7.00 1.50,25.00"/>
    </edge>
    <edge id="E1" from="Junction5" to="J1" priority="-1">
        <lane id="E1_0" index="0" allow="bicycle" speed="13.89" length="23.00" width="1.00" shape="-7.00,3.50 -30.00,3.50"/>
        <lane id="E1_1" index="1" disallow="pedestrian" speed="13.89" length="23.00" width="3.00" shape="-7.00,1.50 -30.00,1.50"/>
    </edge>
    <edge id="E2" from="Junction5" to="J2" priority="-1">
        <lane id="E2_0" index="0" allow="bicycle" speed="13.89" length="23.00" width="1.00" shape="7.00,-3.50 30.00,-3.50"/>
        <lane id="E2_1" index="1" disallow="pedestrian" speed="13.89" length="23.00" width="3.00" shape="7.00,-1.50 30.00,-1.50"/>
    </edge>
    <edge id="E3" from="Junction5" to="J3" priority="-1">
        <lane id="E3_0" index="0" allow="bicycle" speed="13.89" length="18.00" width="1.00" shape="-3.50,-7.00 -3.50,-25.00"/>
        <lane id="E3_1" index="1" disallow="pedestrian" speed="13.89" length="18.00" width="3.00" shape="-1.50,-7.00 -1.50,-25.00"/>
    </edge>
    <edge id="EdgeExternBot" from="JunctionExtern0" to="JunctionExtern1" priority="-1" length="175.00" shape="-60.00,0.00 -45.00,0.00 -45.00,-25.00 -40.00,-30.00 40.00,-30.00 45.00,-25.00 45.00,0.00 60.00,0.00">
        <lane id="EdgeExternBot_0" index="0" disallow="pedestrian" speed="13.89" length="175.00" width="3.00" shape="-60.00,-1.50 -46.50,-1.50 -46.50,-25.62 -40.62,-31.50 40.62,-31.50 46.50,-25.62 46.50,-1.50 60.00,-1.50"/>
    </edge>
    <edge id="EdgeExternTop" from="JunctionExtern1" to="JunctionExtern0" priority="-1" length="175.00" shape="60.00,0.00 45.00,0.00 45.00,25.00 40.00,30.00 -40.00,30.00 -45.00,25.00 -45.00,0.00 -60.00,0.00">
        <lane id="EdgeExternTop_0" index="0" disallow="pedestrian" speed="13.89" length="175.00" width="3.00" shape="60.00,1.50 46.50,1.50 46.50,25.62 40.62,31.50 -40.62,31.50 -46.50,25.62 -46.50,1.50 -60.00,1.50"/>
    </edge>

    <junction id="J0" type="dead_end" x="0.00" y="25.00" incLanes="E0_0 E0_1" intLanes="" shape="0.00,25.00 4.00,25.00 0.00,25.00"/>
    <junction id="J1" type="dead_end" x="-30.00" y="0.00" incLanes="E1_0 E1_1" intLanes="" shape="-30.00,0.00 -30.00,4.00 -30.00,0.00"/>
    <junction id="J2" type="dead_end" x="30.00" y="0.00" incLanes="E2_0 E2_1" intLanes="" shape="30.00,0.00 30.00,-4.00 30.00,0.00"/>
    <junction id="J3" type="dead_end" x="0.00" y="-25.00" incLanes="E3_0 E3_1" intLanes="" shape="0.00,-25.00 -4.00,-25.00 0.00,-25.00"/>
    <junction id="Junction5" type="priority" x="0.00" y="0.00" incLanes="-E0_0 -E0_1 -E2_0 -E2_1 -E3_0 -E3_1 -E1_0 -E1_1" intLanes=":Junction5_0_0 :Junction5_1_0 :Junction5_16_0 :Junction5_3_0 :Junction5_4_0 :Junction5_5_0 :Junction5_6_0 :Junction5_7_0 :Junction5_8_0 :Junction5_9_0 :Junction5_17_0 :Junction5_11_0 :Junction5_12_0 :Junction5_13_0 :Junction5_14_0 :Junction5_15_0" shape="-4.00,7.00 4.00,7.00 4.33,5.33 4.75,4.75 5.33,4.33 6.08,4.08 7.00,4.00 7.00,-4.00 5.33,-4.33 4.75,-4.75 4.33,-5.33 4.08,-6.08 4.00,-7.00 -4.00,-7.00 -4.33,-5.33 -4.75,-4.75 -5.33,-4.33 -6.08,-4.08 -7.00,-4.00 -7.00,4.00 -5.33,4.33 -4.75,4.75 -4.33,5.33 -4.08,6.08">
        <request index="0"  response="0000000000000000" foes="0000000000100000" cont="0"/>
        <request index="1"  response="0000000000000000" foes="1111000010100100" cont="0"/>
        <request index="2"  response="0000000000000010" foes="0000000010100010" cont="1"/>
        <request index="3"  response="0000000000000000" foes="1110000010100000" cont="0"/>
        <request index="4"  response="0000001000000000" foes="0000001000000000" cont="0"/>
        <request index="5"  response="0000101000001111" foes="0000101001001111" cont="0"/>
        <request index="6"  response="0000101000100000" foes="0000101000100000" cont="0"/>
        <request index="7"  response="0000101000001110" foes="0000101000001110" cont="0"/>
        <request index="8"  response="0000000000000000" foes="0010000000000000" cont="0"/>
        <request index="9"  response="0000000000000000" foes="1010010011110000" cont="0"/>
        <request index="10" response="0000001000000000" foes="1010001000000000" cont="1"/>
        <request index="11" response="0000000000000000" foes="1010000011100000" cont="0"/>
        <request index="12" response="0000000000000010" foes="0000000000000010" cont="0"/>
        <request index="13" response="0000111100001010" foes="0100111100001010" cont="0"/>
        <request index="14" response="0010000000001010" foes="0010000000001010" cont="0"/>
        <request index="15" response="0000111000001010" foes="0000111000001010" cont="0"/>
    </junction>
    <junction id="JunctionExtern0" type="priority" x="-60.00" y="0.00" incLanes="EdgeExternTop_0" intLanes=":JunctionExtern0_0_0" shape="-60.00,0.00 -60.00,3.00 -60.00,0.00">
        <request index="0" response="0" foes="0" cont="0"/>
    </junction>
    <junction id="JunctionExtern1" type="priority" x="60.00" y="0.00" incLanes="EdgeExternBot_0" intLanes=":JunctionExtern1_0_0" shape="60.00,0.00 60.00,-3.00 60.00,0.00">
        <request index="0" response="0" foes="0" cont="0"/>
    </junction>

    <junction id=":Junction5_16_0" type="internal" x="-1.61" y="6.24" incLanes=":Junction5_2_0 -E0_0" intLanes=":Junction5_1_0 :Junction5_5_0 :Junction5_7_0"/>
    <junction id=":Junction5_17_0" type="internal" x="1.61" y="-6.24" incLanes=":Junction5_10_0 -E3_0" intLanes=":Junction5_9_0 :Junction5_13_0 :Junction5_15_0"/>

    <connection from="-E0" to="E1" fromLane="0" toLane="0" via=":Junction5_0_0" dir="r" state="M"/>
    <connection from="-E0" to="E3" fromLane="0" toLane="0" via=":Junction5_1_0" dir="s" state="M"/>
    <connection from="-E0" to="E1" fromLane="1" toLane="1" via=":Junction5_2_0" dir="r" state="m"/>
    <connection from="-E0" to="E3" fromLane="1" toLane="1" via=":Junction5_3_0" dir="s" state="M"/>
    <connection from="-E1" to="E3" fromLane="0" toLane="0" via=":Junction5_12_0" dir="r" state="m"/>
    <connection from="-E1" to="E2" fromLane="0" toLane="0" via=":Junction5_13_0" dir="s" state="m"/>
    <connection from="-E1" to="E3" fromLane="1" toLane="1" via=":Junction5_14_0" dir="r" state="m"/>
    <connection from="-E1" to="E2" fromLane="1" toLane="1" via=":Junction5_15_0" dir="s" state="m"/>
    <connection from="-E2" to="E0" fromLane="0" toLane="0" via=":Junction5_4_0" dir="r" state="m"/>
    <connection from="-E2" to="E1" fromLane="0" toLane="0" via=":Junction5_5_0" dir="s" state="m"/>
    <connection from="-E2" to="E0" fromLane="1" toLane="1" via=":Junction5_6_0" dir="r" state="m"/>
    <connection from="-E2" to="E1" fromLane="1" toLane="1" via=":Junction5_7_0" dir="s" state="m"/>
    <connection from="-E3" to="E2" fromLane="0" toLane="0" via=":Junction5_8_0" dir="r" state="M"/>
    <connection from="-E3" to="E0" fromLane="0" toLane="0" via=":Junction5_9_0" dir="s" state="M"/>
    <connection from="-E3" to="E2" fromLane="1" toLane="1" via=":Junction5_10_0" dir="r" state="m"/>
    <connection from="-E3" to="E0" fromLane="1" toLane="1" via=":Junction5_11_0" dir="s" state="M"/>
    <connection from="EdgeExternBot" to="EdgeExternTop" fromLane="0" toLane="0" via=":JunctionExtern1_0_0" dir="t" state="M"/>
    <connection from="EdgeExternTop" to="EdgeExternBot" fromLane="0" toLane="0" via=":JunctionExtern0_0_0" dir="t" state="M"/>

    <connection from=":Junction5_0" to="E1" fromLane="0" toLane="0" dir="r" state="M"/>
    <connection from=":Junction5_1" to="E3" fromLane="0" toLane="0" dir="s" state="M"/>
    <connection from=":Junction5_2" to="E1" fromLane="0" toLane="1" via=":Junction5_16_0" dir="r" state="m"/>
    <connection from=":Junction5_16" to="E1" fromLane="0" toLane="1" dir="r" state="M"/>
    <connection from=":Junction5_3" to="E3" fromLane="0" toLane="1" dir="s" state="M"/>
    <connection from=":Junction5_4" to="E0" fromLane="0" toLane="0" dir="r" state="M"/>
    <connection from=":Junction5_5" to="E1" fromLane="0" toLane="0" dir="s" state="M"/>
    <connection from=":Junction5_6" to="E0" fromLane="0" toLane="1" dir="r" state="M"/>
    <connection from=":Junction5_7" to="E1" fromLane="0" toLane="1" dir="s" state="M"/>
    <connection from=":Junction5_8" to="E2" fromLane="0" toLane="0" dir="r" state="M"/>
    <connection from=":Junction5_9" to="E0" fromLane="0" toLane="0" dir="s" state="M"/>
    <connection from=":Junction5_10" to="E2" fromLane="0" toLane="1" via=":Junction5_17_0" dir="r" state="m"/>
    <connection from=":Junction5_17" to="E2" fromLane="0" toLane="1" dir="r" state="M"/>
    <connection from=":Junction5_11" to="E0" fromLane="0" toLane="1" dir="s" state="M"/>
    <connection from=":Junction5_12" to="E3" fromLane="0" toLane="0" dir="r" state="M"/>
    <connection from=":Junction5_13" to="E2" fromLane="0" toLane="0" dir="s" state="M"/>
    <connection from=":Junction5_14" to="E3" fromLane="0" toLane="1" dir="r" state="M"/>
    <connection from=":Junction5_15" to="E2" fromLane="0" toLane="1" dir="s" state="M"/>
    <connection from=":JunctionExtern0_0" to="EdgeExternBot" fromLane="0" toLane="0" dir="t" state="M"/>
    <connection from=":JunctionExtern1_0" to="EdgeExternTop" fromLane="0" toLane="0" dir="t" state="M"/>

</net>
