<?xml version="1.0" encoding="UTF-8"?>

<!-- generated on 2023-04-19 15:59:44.527494 by vissim_parseRoutes.py v1_16_0+2200-fc4278a7f46
<configuration>
    <vissimNet value="vissim.inp"/>
</configuration>
-->

<routes xmlns:xsi="http://www.w3.org/2001/XMLSchema-instance" xsi:noNamespaceSchemaLocation="http://sumo.dlr.de/xsd/routes_file.xsd">
    <flow id="0" from="9" begin="0.0" end="60.0" no="780"/>
</routes>
