<?xml version="1.0" encoding="UTF-8"?>

<!-- generated on 2024-07-05 12:04:47 by Eclipse SUMO sumo Version v1_20_0+1027-165979bd8ee
<sumoConfiguration xmlns:xsi="http://www.w3.org/2001/XMLSchema-instance" xsi:noNamespaceSchemaLocation="http://sumo.dlr.de/xsd/sumoConfiguration.xsd">

    <input>
        <net-file value="input_net.net.xml"/>
        <route-files value="input_routes.rou.xml"/>
        <additional-files value="input_additional.add.xml"/>
    </input>

    <output>
        <fcd-output value="fcd.xml"/>
    </output>

    <report>
        <no-step-log value="true"/>
    </report>

    <traci_server>
        <remote-port value="49189"/>
    </traci_server>

</sumoConfiguration>
-->

<ToCDeviceLog>
    <ToCup id="ToC_veh" t="2.00" lane=":2/1_0_0" lanePos="1.57" x="2878.05" y="2448.76"/>
    <TOR id="ToC_veh" t="127.00" lane="4/1to5/1_0" lanePos="567.20" x="636.20" y="2693.08"/>
    <MRM id="ToC_veh" t="139.00" lane="4/1to5/1_0" lanePos="816.51" x="434.50" y="2546.54"/>
    <ToCdown id="ToC_veh" t="150.00" lane="4/1to5/1_0" lanePos="979.05" x="303.01" y="2451.01"/>
    <ToCup id="ToC_veh" t="202.00" lane="5/1to6/1_0" lanePos="469.44" x="153.71" y="2000.30"/>
    <TOR id="ToC_veh" t="227.00" lane="5/1to6/1_0" lanePos="810.80" x="48.22" y="1675.65"/>
    <ToCup id="ToC_veh" t="242.00" lane="6/1to7/1_0" lanePos="32.44" x="5.31" y="1478.87"/>
    <TOR id="ToC_veh" t="252.00" lane="6/1to7/1_0" lanePos="169.64" x="47.71" y="1348.38"/>
    <ToCup id="ToC_veh" t="262.00" lane="6/1to7/1_0" lanePos="306.84" x="90.11" y="1217.90"/>
    <TOR id="ToC_veh" t="277.00" lane="6/1to7/1_0" lanePos="512.64" x="153.70" y="1022.17"/>
    <ToCdown id="ToC_veh" t="300.00" lane="6/1to7/1_0" lanePos="828.20" x="251.22" y="722.05"/>
    <ToCup id="ToC_veh" t="302.00" lane="6/1to7/1_0" lanePos="847.15" x="257.07" y="704.03"/>
    <TOR id="ToC_veh" t="377.00" lane="7/1to8/1_0" lanePos="890.60" x="1021.05" y="49.77"/>
    <ToCdown id="ToC_veh" t="400.00" lane="8/1to9/1_0" lanePos="222.00" x="1319.95" y="-4.95"/>
</ToCDeviceLog>
