<?xml version="1.0" encoding="UTF-8"?>

<!-- generated on 2022-06-07 16:13:35 by Eclipse SUMO netedit Version v1_13_0+0627-086c8cb1688
-->

<routes xmlns:xsi="http://www.w3.org/2001/XMLSchema-instance" xsi:noNamespaceSchemaLocation="http://sumo.dlr.de/xsd/routes_file.xsd">
    <!-- Vehicles, persons and containers (sorted by depart) -->
    <containerFlow id="cf_0" begin="0.00" end="3600.00" containersPerHour="1800.00">
        <transport from="gneE2" containerStop="containerStop" lines="ANY"/>
    </containerFlow>
</routes>
