<?xml version="1.0" encoding="UTF-8"?>

<!-- generated on 2024-07-17 13:02:49 by Eclipse SUMO netedit Version v1_20_0+1264-f5cae912633
<neteditConfiguration xmlns:xsi="http://www.w3.org/2001/XMLSchema-instance" xsi:noNamespaceSchemaLocation="http://sumo.dlr.de/xsd/neteditConfiguration.xsd">

    <input>
        <sumo-net-file value="D:\Netedit_dev\tests\netedit\network\junctions\contextual_menu\common\net.net.xml"/>
    </input>

    <processing>
        <geometry.min-radius.fix.railways value="false"/>
        <geometry.max-grade.fix value="false"/>
        <offset.disable-normalization value="true"/>
        <lefthand value="0"/>
    </processing>

    <junctions>
        <no-internal-links value="false"/>
        <no-turnarounds value="true"/>
        <junctions.corner-detail value="5"/>
        <junctions.limit-turn-speed value="5.50"/>
        <rectangular-lane-cut value="0"/>
    </junctions>

    <pedestrian>
        <walkingareas value="1"/>
    </pedestrian>

</neteditConfiguration>
-->

<tlLogics version="1.20" xmlns:xsi="http://www.w3.org/2001/XMLSchema-instance" xsi:noNamespaceSchemaLocation="http://sumo.dlr.de/xsd/tllogic_file.xsd">
    <tlLogic id="JunctionCenter" type="static" programID="0" offset="0">
        <phase duration="37" state="gGgrrrgGgrrrrGrG"/>
        <phase duration="5"  state="gGgrrrgGgrrrrrrr"/>
        <phase duration="3"  state="yyyrrryyyrrrrrrr"/>
        <phase duration="37" state="rrrgGgrrrgGgGrGr"/>
        <phase duration="5"  state="rrrgGgrrrgGgrrrr"/>
        <phase duration="3"  state="rrryyyrrryyyrrrr"/>
    </tlLogic>

    <connection from="-E4" to="E7" fromLane="1" toLane="1" tl="JunctionCenter" linkIndex="9"/>
    <connection from="-E4" to="E6" fromLane="1" toLane="1" tl="JunctionCenter" linkIndex="10"/>
    <connection from="-E4" to="E5" fromLane="1" toLane="1" tl="JunctionCenter" linkIndex="11"/>
    <connection from="-E5" to="E4" fromLane="1" toLane="1" tl="JunctionCenter" linkIndex="0"/>
    <connection from="-E5" to="E7" fromLane="1" toLane="1" tl="JunctionCenter" linkIndex="1"/>
    <connection from="-E5" to="E6" fromLane="1" toLane="1" tl="JunctionCenter" linkIndex="2"/>
    <connection from="-E6" to="E5" fromLane="1" toLane="1" tl="JunctionCenter" linkIndex="3"/>
    <connection from="-E6" to="E4" fromLane="1" toLane="1" tl="JunctionCenter" linkIndex="4"/>
    <connection from="-E6" to="E7" fromLane="1" toLane="1" tl="JunctionCenter" linkIndex="5"/>
    <connection from="-E7" to="E6" fromLane="1" toLane="1" tl="JunctionCenter" linkIndex="6"/>
    <connection from="-E7" to="E5" fromLane="1" toLane="1" tl="JunctionCenter" linkIndex="7"/>
    <connection from="-E7" to="E4" fromLane="1" toLane="1" tl="JunctionCenter" linkIndex="8"/>
</tlLogics>
