<?xml version="1.0" encoding="UTF-8"?>

<!-- generated on 2023-03-09 10:53:24.142416 by stationDistricts.py v1_16_0+1126-980ef38a935
<configuration>
    <net-file value="input_net.net.xml"/>
    <output value="out.add.xml"/>
    <stop-file value="input_additional.add.xml"/>
</configuration>
-->

<additional xmlns:xsi="http://www.w3.org/2001/XMLSchema-instance" xsi:noNamespaceSchemaLocation="http://sumo.dlr.de/xsd/additional_file.xsd">
    <taz id="0" name="Bestensee" color="0,42,255" edges="8044251#0 8044251#1">
       <param key="coord" value="3767.105366179896 67.10757405819052"/>
    </taz>
    <taz id="1" name="Eichwalde" color="255,38,0" edges="1151635682 22955557#0 22955557#1 22955557#2 22955557#3 22955557#4 22955557#5 22955557#6 22955557#7 22955557#8 248740648#3 248740648#4 27006469#1 27006469#2 27006469#3 27006469#4 27006469#5 27006469#6 27006469#7 27006469#8 27006469#9 441932169#5 441932172#1 441932172#2 441932172#3 441932173#0 441932173#1 441932173#2 441932173#3 6074658#1">
       <param key="coord" value="2698.3544057888653 14514.953185563072"/>
    </taz>
    <taz id="2" name="Königs Wusterhausen" color="89,255,0" edges="-121902849 -124449286#0 -124449286#2 -23369315 -254025498 -254033615#0 -26926962 -26927036 -294730182 -294730183 -326225735#1 -33141915#0 -33142145#0 -33142145#1 -334912225#0 -334912225#1 -334912225#2 -347977095 -36867992 -392159899#1 -46843152 -742458418#0 -802024940 1015347135 121902848#0 121902848#1 121902850 121902851 121902852 121902853#0 121902853#1 121902854 121902857#0 121902857#1 121902859 121902860#0 121902860#1 121902860#2 121903338#0 121903338#1 121903607 121911138 124449286#1 124449286#2 124449286#3 124449286#4 124449286#5 154203997 22955562 254025498 254033612 254033615#0 254033615#1 255228347 255228349#0 26609040#0 26609040#1 26609040#2 26633642#0 26633642#1 26633642#2 26633642#3 26633744 26633814#0 26633814#1 26633824#0 26633824#1 26633824#2 26633833#0 26633833#1 26633833#2 26633833#3 26633833#4 26633840#0 26633840#1 26634597 26634628#0 26634628#1 26634628#2 26807695#0 26807695#1 26807695#2 26807695#3 26807695#4 26926983 26926993#0 26926993#1 26926993#2 26926993#3 26926993#4 275098666#0 275098666#1 275098666#2 275267999#1 294730185 294730187 314928807#1 326225735#1 33141915#1 33142145#1 33142249 334912225#1 334912225#2 337460727#0 347977088 347977089#1 347977090 347977092#1 347977095 36867853 36867904#0 36867904#1 36867904#2 36867921#0 36867921#1 36867992 36897061 392159899#0 392159899#1 441828376#0 441828376#1 441828377 441888109 46843152 742458418#0 742458418#1 742458420 742458422 742458424 802024940 961259192">
       <param key="coord" value="3633.66337150578 6197.534242588531"/>
    </taz>
    <taz id="3" name="Niederlehme" color="168,255,0" edges="-176623658#0 -176623658#1 -314928807#0 -314928808 -438267819 -8044249 176623658#1 314928807#0 314928808 438267819">
       <param key="coord" value="5053.432275245856 6778.651469777848"/>
    </taz>
    <taz id="4" name="Wildau" color="107,0,255" edges="-153134060#3 -153134060#4 -153134060#5 -255228345#0 -255228346#0 -255228346#1 -255228346#2 -255228348#0 -255228348#1 -255228348#2 -326225735#0 153134060#3 153134060#4 153134060#5 248740648#1 248740648#2 255228345#0 255228345#1 255228346#0 255228346#1 255228346#2 255228348#0 255228348#1 255228348#2 255228349#1 6074576#1 6074658#2 6074658#3">
       <param key="coord" value="3835.6450000000004 8710.2575"/>
    </taz>
    <taz id="5" name="Zeesen" color="15,0,255" edges="337460727#1 337460727#2 337460727#3 8044251#2 8044251#3 8044251#4">
       <param key="coord" value="3815.476227376295 2674.439822050298"/>
    </taz>
    <taz id="6" name="Zeuthen" color="255,0,165" edges="-153134060#0 -153134060#1 -153134060#2 -295348086 -36853643#0 -36853643#1 -441932166#3 -441932166#4 -441932169#2 -441932169#3 -441932169#4 153134060#0 153134060#1 153134060#2 248740648#4 295348086 36853643#0 36853643#1 42220072#0 42220072#1 441932166#1 441932166#2 441932166#3 441932166#4 441932169#1 441932169#2 441932169#3 441932169#4 441932173#3">
       <param key="coord" value="3472.297165084128 11986.18731821669"/>
    </taz>
</additional>
