<?xml version="1.0" encoding="UTF-8"?>

<!-- generated on 22.04.2020 00:30:27 by Eclipse SUMO netedit Version v1_5_0+1230-5308a0e38c
<configuration xmlns:xsi="http://www.w3.org/2001/XMLSchema-instance" xsi:noNamespaceSchemaLocation="http://sumo.dlr.de/xsd/netconvertConfiguration.xsd">

    <input>
        <sumo-net-file value="C:\Users\alva_pa\.texttest\tmp\netedit.gui.21Apr171420.5468\netedit.gui\shapeElements\poilane\inspect\relativepath\input_net.net.xml"/>
    </input>

    <output>
        <output-file value="C:\Users\alva_pa\.texttest\tmp\netedit.gui.21Apr171420.5468\netedit.gui\shapeElements\poilane\inspect\relativepath\net.net.xml"/>
    </output>

    <processing>
        <geometry.min-radius.fix.railways value="false"/>
        <geometry.max-grade.fix value="false"/>
        <offset.disable-normalization value="true"/>
        <lefthand value="false"/>
    </processing>

    <junctions>
        <no-turnarounds value="true"/>
        <junctions.corner-detail value="5"/>
        <junctions.limit-turn-speed value="5.5"/>
        <rectangular-lane-cut value="false"/>
    </junctions>

    <pedestrian>
        <walkingareas value="false"/>
    </pedestrian>

    <netedit>
        <additional-files value="C:\Users\alva_pa\.texttest\tmp\netedit.gui.21Apr171420.5468\netedit.gui\shapeElements\poilane\inspect\relativepath\additionals.xml"/>
        <additionals-output value="C:\Users\alva_pa\.texttest\tmp\netedit.gui.21Apr171420.5468\netedit.gui\shapeElements\poilane\inspect\relativepath\additionals.xml"/>
        <route-files value="C:\Users\alva_pa\.texttest\tmp\netedit.gui.21Apr171420.5468\netedit.gui\shapeElements\poilane\inspect\relativepath\routes.xml"/>
        <demandelements-output value="C:\Users\alva_pa\.texttest\tmp\netedit.gui.21Apr171420.5468\netedit.gui\shapeElements\poilane\inspect\relativepath\routes.xml"/>
        <data-files value="C:\Users\alva_pa\.texttest\tmp\netedit.gui.21Apr171420.5468\netedit.gui\shapeElements\poilane\inspect\relativepath\datas.xml"/>
        <dataelements-output value="C:\Users\alva_pa\.texttest\tmp\netedit.gui.21Apr171420.5468\netedit.gui\shapeElements\poilane\inspect\relativepath\datas.xml"/>
    </netedit>

    <visualisation>
        <gui-settings-file value="C:\Users\alva_pa\.texttest\tmp\netedit.gui.21Apr171420.5468\netedit.gui\shapeElements\poilane\inspect\relativepath\gui-settings.xml"/>
        <window-size value="700,500"/>
        <window-pos value="50,50"/>
        <gui-testing value="true"/>
        <gui-testing-debug value="true"/>
        <gui-testing.setting-output value="C:\Users\alva_pa\.texttest\tmp\netedit.gui.21Apr171420.5468\netedit.gui\shapeElements\poilane\inspect\relativepath\guisettingsoutput.xml"/>
    </visualisation>

    <report>
        <no-warnings value="true"/>
        <aggregate-warnings value="5"/>
        <error-log value="C:\Users\alva_pa\.texttest\tmp\netedit.gui.21Apr171420.5468\netedit.gui\shapeElements\poilane\inspect\relativepath\log.txt"/>
    </report>

</configuration>
-->

<additional xmlns:xsi="http://www.w3.org/2001/XMLSchema-instance" xsi:noNamespaceSchemaLocation="http://sumo.dlr.de/xsd/additional_file.xsd">
    <poi id="poi_0" color="red" layer="202.00" lane="gneE1_0" pos="45.00"/>
    <poi id="poi_1" color="red" layer="202.00" lane="gneE1_0" pos="38.00"/>
</additional>
