<?xml version="1.0" encoding="UTF-8"?>
<routes xmlns:xsi="http://www.w3.org/2001/XMLSchema-instance" xsi:noNamespaceSchemaLocation="http://sumo.dlr.de/xsd/routes_file.xsd">
    <vType id="DEFAULT_VEHTYPE" vClass="bicycle"/>
    <vehicle id="WE" depart="0.00" departLane="2" departSpeed="max" departPos="-20">
        <route edges="WC CE"/>
    </vehicle>
</routes>
