<?xml version="1.0" encoding="UTF-8"?>

<!-- generated on 2021-06-25 10:38:30 by Eclipse SUMO netedit Version v1_9_2+0656-adb6934d49
-->

<additional xmlns:xsi="http://www.w3.org/2001/XMLSchema-instance" xsi:noNamespaceSchemaLocation="http://sumo.dlr.de/xsd/additional_file.xsd">
    <e2Detector id="E2_02" lane="gneE0_0" pos="1.00" length="10.00" freq="100.00" file="fileA.txt" vTypes="type1 type2 type3"/>
</additional>
