<?xml version="1.0" encoding="UTF-8"?>
<additional>
    <location  netOffset="-687565.0,-4927630.0" projParameter="+proj=utm +zone=32 +ellps=WGS84 +datum=WGS84 +units=m +no_defs" convBoundary="0.0,0.0,1209.62,1047.04" origBoundary="11.358681,44.477629,11.373864,44.487018"/>
      <poly  id="150423545" type="building.yes" shape="468.67,787.39,0.0 473.38,798.43,0.0 485.79,793.14,0.0 481.05,782.1,0.0 480.35,782.4,0.0 479.95,781.46,0.0 478.45,781.0,0.0 476.0,782.05,0.0 475.35,783.43,0.0 475.75,784.36,0.0 468.67,787.39,0.0" color="235,199,112" layer="-1" fill="1"/>
      <poly  id="150423553" type="building.yes" shape="297.32,903.34,0.0 298.23,903.4,0.0 297.67,910.48,0.0 309.0,911.35,0.0 309.27,907.82,0.0 310.26,907.89,0.0 310.63,903.06,0.0 309.79,902.99,0.0 310.39,895.38,0.0 298.02,894.42,0.0 297.32,903.34,0.0" color="235,199,112" layer="-1" fill="1"/>
      <poly  id="150423557" type="building.yes" shape="288.56,866.01,0.0 289.48,866.07,0.0 289.09,872.12,0.0 295.58,872.54,0.0 295.46,874.27,0.0 300.87,874.63,0.0 301.39,866.77,0.0 302.27,866.83,0.0 302.61,861.57,0.0 288.91,860.67,0.0 288.56,866.01,0.0" color="235,199,112" layer="-1" fill="1"/>
      <poly  id="150423564" type="building.yes" shape="432.51,716.41,0.0 434.01,719.4,0.0 434.99,718.92,0.0 435.99,720.95,0.0 437.79,720.11,0.0 445.01,716.5,0.0 446.86,715.42,0.0 445.42,712.98,0.0 442.13,714.93,0.0 440.62,712.38,0.0 432.51,716.41,0.0" color="235,199,112" layer="-1" fill="1"/>
      <poly  id="150423570" type="building.yes" shape="460.67,765.25,0.0 464.83,775.68,0.0 469.31,773.9,0.0 469.47,774.3,0.0 475.96,771.71,0.0 473.4,765.33,0.0 473.99,765.09,0.0 470.44,756.2,0.0 465.23,758.28,0.0 466.99,762.73,0.0 460.67,765.25,0.0" color="235,199,112" layer="-1" fill="1"/>
      <poly  id="150423574" type="building.yes" shape="239.22,861.92,0.0 246.71,876.39,0.0 260.53,877.36,0.0 261.31,867.44,0.0 251.94,866.71,0.0 250.11,863.38,0.0 255.35,856.0,0.0 247.28,850.27,0.0 245.25,853.2,0.0 241.61,858.45,0.0 239.22,861.92,0.0" color="235,199,112" layer="-1" fill="1"/>
      <poly  id="150423591" type="building.yes" shape="391.5,887.4,0.0 395.49,897.19,0.0 397.81,896.24,0.0 401.07,904.24,0.0 411.0,900.21,0.0 406.81,889.85,0.0 408.39,889.21,0.0 404.81,880.35,0.0 396.91,883.54,0.0 397.49,884.96,0.0 391.5,887.4,0.0" color="235,199,112" layer="-1" fill="1"/>
      <poly  id="150423596" type="building.yes" shape="358.93,859.23,0.0 362.19,866.87,0.0 361.26,867.27,0.0 363.67,872.92,0.0 371.28,869.67,0.0 370.9,868.77,0.0 377.57,865.94,0.0 372.57,854.18,0.0 367.76,856.23,0.0 365.64,857.12,0.0 365.36,856.5,0.0 358.93,859.23,0.0" color="235,199,112" layer="-1" fill="1"/>
      <poly  id="150423623" type="building.yes" shape="377.71,850.42,0.0 382.98,862.93,0.0 386.88,861.28,0.0 387.32,862.32,0.0 387.5,862.77,0.0 390.81,861.38,0.0 390.63,860.94,0.0 390.2,859.92,0.0 393.97,858.34,0.0 391.8,853.25,0.0 388.6,845.97,0.0 377.71,850.42,0.0" color="235,199,112" layer="-1" fill="1"/>
      <poly  id="150423630" type="building.yes" shape="425.11,795.44,0.0 426.21,797.67,0.0 428.17,801.7,0.0 438.2,796.84,0.0 440.28,795.81,0.0 440.51,796.28,0.0 440.76,796.15,0.0 442.44,795.32,0.0 438.66,787.63,0.0 428.09,792.82,0.0 428.56,793.75,0.0 425.11,795.44,0.0" color="235,199,112" layer="-1" fill="1"/>
      <poly  id="150423632" type="building.yes" shape="480.49,815.98,0.0 483.08,822.81,0.0 487.72,821.06,0.0 487.21,819.68,0.0 490.38,818.49,0.0 491.05,820.25,0.0 496.65,818.13,0.0 493.44,809.66,0.0 492.6,809.98,0.0 490.38,804.15,0.0 483.01,807.02,0.0 485.74,813.83,0.0 480.49,815.98,0.0" color="235,199,112" layer="-1" fill="1"/>
      <poly  id="150423636" type="building.yes" shape="328.05,791.71,0.0 330.39,797.14,0.0 331.35,796.73,0.0 338.13,812.58,0.0 337.29,812.95,0.0 339.51,818.14,0.0 352.45,812.6,0.0 350.18,807.34,0.0 349.04,807.83,0.0 342.2,791.85,0.0 343.27,791.4,0.0 341.02,786.15,0.0 328.05,791.71,0.0" color="235,199,112" layer="-1" fill="1"/>
      <poly  id="150423637" type="building.yes" shape="401.15,827.58,0.0 412.85,851.67,0.0 423.27,846.63,0.0 422.21,844.46,0.0 422.93,844.12,0.0 420.68,839.46,0.0 419.91,839.84,0.0 414.89,829.44,0.0 415.58,829.12,0.0 413.32,824.45,0.0 412.49,824.86,0.0 411.41,822.62,0.0 401.15,827.58,0.0" color="235,199,112" layer="-1" fill="1"/>
      <poly  id="150423652" type="building.yes" shape="440.02,823.89,0.0 442.49,830.22,0.0 443.18,829.95,0.0 446.64,838.81,0.0 450.36,837.36,0.0 448.54,832.58,0.0 452.95,830.9,0.0 454.26,834.34,0.0 458.05,832.86,0.0 455.16,825.46,0.0 455.8,825.2,0.0 453.27,818.7,0.0 440.02,823.89,0.0" color="235,199,112" layer="-1" fill="1"/>
      <poly  id="150423667" type="building.yes" shape="511.1,906.08,0.0 516.52,919.02,0.0 519.65,917.78,0.0 532.17,946.49,0.0 532.72,947.76,0.0 552.67,939.12,0.0 547.36,927.01,0.0 539.34,930.46,0.0 530.88,910.74,0.0 538.75,907.45,0.0 533.66,895.3,0.0 521.42,900.43,0.0 521.9,901.57,0.0 511.1,906.08,0.0" color="235,199,112" layer="-1" fill="1"/>
      <poly  id="150423672" type="building.yes" shape="373.47,770.9,0.0 385.32,794.85,0.0 391.43,791.82,0.0 390.46,789.86,0.0 395.33,787.44,0.0 393.06,782.84,0.0 392.25,783.25,0.0 386.96,772.53,0.0 387.68,772.18,0.0 385.42,767.59,0.0 384.7,767.94,0.0 380.66,769.93,0.0 379.65,767.86,0.0 373.47,770.9,0.0" color="235,199,112" layer="-1" fill="1"/>
      <poly  id="150423686" type="building.yes" shape="320.12,774.47,0.0 322.92,780.6,0.0 324.17,780.0,0.0 326.09,784.08,0.0 326.47,784.9,0.0 338.69,779.13,0.0 342.83,777.16,0.0 339.76,770.69,0.0 332.91,773.95,0.0 331.82,771.68,0.0 326.94,773.9,0.0 326.45,772.83,0.0 321.86,774.85,0.0 321.44,773.9,0.0 320.12,774.47,0.0" color="235,199,112" layer="-1" fill="1"/>
      <poly  id="150423706" type="building.yes" shape="431.38,745.95,0.0 436.28,757.44,0.0 451.13,751.08,0.0 448.8,745.35,0.0 451.34,744.35,0.0 450.51,742.22,0.0 452.46,741.45,0.0 454.02,745.39,0.0 452.47,746.01,0.0 453.99,749.84,0.0 457.19,748.51,0.0 458.43,751.51,0.0 468.71,747.27,0.0 462.56,732.67,0.0 460.62,733.5,0.0 431.38,745.95,0.0" color="235,199,112" layer="-1" fill="1"/>
      <poly  id="150423726" type="building.yes" shape="233.4,919.05,0.0 241.5,919.75,0.0 242.09,912.51,0.0 238.42,912.23,0.0 238.78,907.25,0.0 242.69,907.53,0.0 242.62,908.49,0.0 251.1,909.2,0.0 251.32,906.29,0.0 255.06,906.59,0.0 255.67,899.16,0.0 254.79,899.08,0.0 251.79,898.82,0.0 242.84,898.05,0.0 242.96,896.53,0.0 235.39,895.88,0.0 233.4,919.05,0.0" color="235,199,112" layer="-1" fill="1"/>
      <poly  id="150423745" type="building.yes" shape="422.56,714.38,0.0 430.52,730.45,0.0 440.43,725.56,0.0 437.79,720.11,0.0 435.99,720.95,0.0 434.99,718.92,0.0 434.01,719.4,0.0 432.51,716.41,0.0 440.62,712.38,0.0 442.13,714.93,0.0 445.42,712.98,0.0 446.86,715.42,0.0 445.01,716.5,0.0 449.07,724.85,0.0 455.3,721.81,0.0 459.77,719.6,0.0 454.07,706.2,0.0 445.33,703.14,0.0 422.56,714.38,0.0" color="235,199,112" layer="-1" fill="1"/>
      <poly  id="150423750" type="building.yes" shape="311.19,852.32,0.0 313.55,857.71,0.0 314.59,857.25,0.0 321.7,873.41,0.0 320.71,873.83,0.0 323.0,879.02,0.0 335.52,873.53,0.0 334.14,870.38,0.0 334.81,870.08,0.0 332.44,864.71,0.0 331.65,865.07,0.0 328.94,858.92,0.0 328.46,857.83,0.0 327.35,855.33,0.0 328.14,854.97,0.0 325.87,849.79,0.0 325.24,850.07,0.0 323.79,846.79,0.0 311.19,852.32,0.0" color="235,199,112" layer="-1" fill="1"/>
      <poly  id="150423781" type="building.yes" shape="390.2,859.92,0.0 390.63,860.94,0.0 394.4,859.36,0.0 393.97,858.34,0.0 390.2,859.92,0.0" color="235,199,112" layer="-1" fill="1"/>
      <poly  id="150423794" type="building.yes" shape="379.65,767.86,0.0 380.66,769.93,0.0 384.7,767.94,0.0 383.68,765.87,0.0 379.65,767.86,0.0" color="235,199,112" layer="-1" fill="1"/>
      <poly  id="150423808" type="building.yes" shape="338.69,779.13,0.0 340.04,782.2,0.0 344.38,780.3,0.0 342.83,777.16,0.0 338.69,779.13,0.0" color="235,199,112" layer="-1" fill="1"/>
      <poly  id="150423836" type="building.yes" shape="305.04,844.1,0.0 306.36,847.09,0.0 310.42,845.41,0.0 309.11,842.35,0.0 305.04,844.1,0.0" color="235,199,112" layer="-1" fill="1"/>
      <poly  id="150423843" type="building.yes" shape="368.93,748.06,0.0 374.26,759.14,0.0 385.29,753.81,0.0 379.88,742.77,0.0 368.93,748.06,0.0" color="235,199,112" layer="-1" fill="1"/>
      <poly  id="150423845" type="building.yes" shape="382.98,862.93,0.0 383.41,863.96,0.0 387.32,862.32,0.0 386.88,861.28,0.0 382.98,862.93,0.0" color="235,199,112" layer="-1" fill="1"/>
      <poly  id="150423849" type="building.yes" shape="397.19,842.52,0.0 399.94,850.09,0.0 404.49,848.5,0.0 401.81,840.86,0.0 397.19,842.52,0.0" color="235,199,112" layer="-1" fill="1"/>
      <poly  id="150423851" type="building.yes" shape="352.24,784.73,0.0 354.45,789.74,0.0 359.43,787.56,0.0 357.23,782.55,0.0 352.24,784.73,0.0" color="235,199,112" layer="-1" fill="1"/>
      <poly  id="150423857" type="building.yes" shape="420.65,905.28,0.0 423.49,910.77,0.0 428.55,908.11,0.0 425.74,902.66,0.0 420.65,905.28,0.0" color="235,199,112" layer="-1" fill="1"/>
      <poly  id="150423864" type="building.yes" shape="452.55,894.89,0.0 453.88,897.59,0.0 456.48,896.22,0.0 455.17,893.59,0.0 452.55,894.89,0.0" color="235,199,112" layer="-1" fill="1"/>
      <poly  id="150423871" type="building.yes" shape="455.3,721.81,0.0 459.07,730.1,0.0 463.54,727.94,0.0 459.77,719.6,0.0 455.3,721.81,0.0" color="235,199,112" layer="-1" fill="1"/>
      <poly  id="150423872" type="building.yes" shape="454.36,805.25,0.0 457.38,811.46,0.0 462.46,809.0,0.0 459.45,802.77,0.0 454.36,805.25,0.0" color="235,199,112" layer="-1" fill="1"/>
      <poly  id="150423884" type="building.yes" shape="261.56,849.38,0.0 264.47,851.69,0.0 268.6,846.48,0.0 265.69,844.17,0.0 261.56,849.38,0.0" color="235,199,112" layer="-1" fill="1"/>
      <poly  id="150423894" type="building.yes" shape="456.5,854.68,0.0 459.29,861.23,0.0 473.27,855.29,0.0 470.48,848.74,0.0 456.5,854.68,0.0" color="235,199,112" layer="-1" fill="1"/>
      <poly  id="150423905" type="building.yes" shape="467.07,801.4,0.0 468.34,804.92,0.0 473.13,803.21,0.0 471.86,799.7,0.0 467.07,801.4,0.0" color="235,199,112" layer="-1" fill="1"/>
      <poly  id="150423906" type="building.yes" shape="444.33,773.67,0.0 449.75,786.69,0.0 459.19,782.76,0.0 453.78,769.75,0.0 444.33,773.67,0.0" color="235,199,112" layer="-1" fill="1"/>
      <poly  id="150423927" type="building.yes" shape="446.94,807.36,0.0 449.8,814.7,0.0 456.1,812.27,0.0 453.28,804.92,0.0 446.94,807.36,0.0" color="235,199,112" layer="-1" fill="1"/>
      <poly  id="150423928" type="building.yes" shape="393.26,734.32,0.0 397.74,743.52,0.0 408.87,738.13,0.0 404.4,728.91,0.0 393.26,734.32,0.0" color="235,199,112" layer="-1" fill="1"/>
      <poly  id="150423939" type="building.yes" shape="476.58,858.63,0.0 478.76,864.79,0.0 494.89,859.03,0.0 492.71,852.9,0.0 476.58,858.63,0.0" color="235,199,112" layer="-1" fill="1"/>
      <poly  id="150423943" type="building.yes" shape="388.6,845.97,0.0 391.8,853.25,0.0 399.94,850.09,0.0 397.19,842.52,0.0 388.6,845.97,0.0" color="235,199,112" layer="-1" fill="1"/>
      <poly  id="150423949" type="building.yes" shape="365.8,851.69,0.0 367.76,856.23,0.0 372.57,854.18,0.0 370.61,849.63,0.0 365.8,851.69,0.0" color="235,199,112" layer="-1" fill="1"/>
      <poly  id="150423953" type="building.yes" shape="414.95,773.56,0.0 419.77,783.44,0.0 429.81,778.55,0.0 425.0,768.66,0.0 414.95,773.56,0.0" color="235,199,112" layer="-1" fill="1"/>
      <poly  id="150423954" type="building.yes" shape="363.78,758.29,0.0 365.88,762.82,0.0 369.62,761.09,0.0 367.53,756.56,0.0 363.78,758.29,0.0" color="235,199,112" layer="-1" fill="1"/>
      <poly  id="150423962" type="building.yes" shape="365.32,814.23,0.0 369.87,824.54,0.0 381.95,819.18,0.0 377.39,808.89,0.0 365.32,814.23,0.0" color="235,199,112" layer="-1" fill="1"/>
      <poly  id="150423971" type="building.yes" shape="409.18,874.57,0.0 412.9,883.76,0.0 420.28,880.76,0.0 422.83,879.59,0.0 418.89,870.65,0.0 409.18,874.57,0.0" color="235,199,112" layer="-1" fill="1"/>
      <poly  id="150423978" type="building.yes" shape="459.07,730.1,0.0 460.62,733.5,0.0 462.56,732.67,0.0 465.19,731.17,0.0 463.54,727.94,0.0 459.07,730.1,0.0" color="235,199,112" layer="-1" fill="1"/>
      <poly  id="150423994" type="building.yes" shape="268.79,915.8,0.0 272.63,916.07,0.0 284.74,916.92,0.0 285.84,901.41,0.0 269.87,900.28,0.0 268.79,915.8,0.0" color="235,199,112" layer="-1" fill="1"/>
      <poly  id="150423999" type="building.yes" shape="320.27,771.25,0.0 321.44,773.9,0.0 321.86,774.85,0.0 326.45,772.83,0.0 324.86,769.16,0.0 320.27,771.25,0.0" color="235,199,112" layer="-1" fill="1"/>
      <poly  id="150424004" type="building.yes" shape="372.71,895.57,0.0 377.81,907.39,0.0 389.92,902.17,0.0 389.09,900.26,0.0 384.83,890.35,0.0 372.71,895.57,0.0" color="235,199,112" layer="-1" fill="1"/>
      <poly  id="150424006" type="building.yes" shape="303.79,828.93,0.0 308.71,839.66,0.0 317.84,835.45,0.0 314.95,829.73,0.0 316.7,828.85,0.0 314.3,824.11,0.0 303.79,828.93,0.0" color="235,199,112" layer="-1" fill="1"/>
      <poly  id="150424011" type="building.yes" shape="496.23,844.01,0.0 501.14,855.37,0.0 511.28,850.99,0.0 508.42,844.4,0.0 509.71,843.85,0.0 507.63,839.07,0.0 496.23,844.01,0.0" color="235,199,112" layer="-1" fill="1"/>
      <poly  id="150424014" type="building.yes" shape="477.45,809.32,0.0 479.65,814.69,0.0 480.21,816.09,0.0 480.49,815.98,0.0 485.74,813.83,0.0 483.01,807.02,0.0 477.45,809.32,0.0" color="235,199,112" layer="-1" fill="1"/>
      <poly  id="150424025" type="building.yes" shape="446.74,901.35,0.0 451.45,910.26,0.0 462.15,904.62,0.0 457.45,895.7,0.0 456.48,896.22,0.0 453.88,897.59,0.0 446.74,901.35,0.0" color="235,199,112" layer="-1" fill="1"/>
      <poly  id="150424051" type="building.yes" shape="470.07,875.65,0.0 474.31,883.74,0.0 475.95,882.86,0.0 478.35,887.39,0.0 481.1,885.94,0.0 474.45,873.34,0.0 470.07,875.65,0.0" color="235,199,112" layer="-1" fill="1"/>
      <poly  id="150424064" type="building.yes" shape="404.09,752.57,0.0 406.7,757.78,0.0 410.5,756.03,0.0 408.6,752.05,0.0 409.81,751.49,0.0 409.09,750.07,0.0 404.09,752.57,0.0" color="235,199,112" layer="-1" fill="1"/>
      <poly  id="150424069" type="building.yes" shape="483.6,870.81,0.0 484.15,872.68,0.0 487.74,874.4,0.0 493.92,872.01,0.0 495.78,868.73,0.0 495.2,866.7,0.0 483.6,870.81,0.0" color="235,199,112" layer="-1" fill="1"/>
      <poly  id="150424090" type="building.yes" shape="265.94,828.62,0.0 275.24,834.77,0.0 295.3,805.12,0.0 300.86,808.89,0.0 307.27,799.43,0.0 292.11,789.18,0.0 265.94,828.62,0.0" color="235,199,112" layer="-1" fill="1"/>
      <poly  id="150424098" type="building.yes" shape="438.2,796.84,0.0 439.85,800.12,0.0 442.17,798.96,0.0 440.76,796.15,0.0 440.51,796.28,0.0 440.28,795.81,0.0 438.2,796.84,0.0" color="235,199,112" layer="-1" fill="1"/>
      <poly  id="150424105" type="building.yes" shape="448.54,832.58,0.0 450.36,837.36,0.0 450.45,837.6,0.0 454.86,835.95,0.0 454.26,834.34,0.0 452.95,830.9,0.0 448.54,832.58,0.0" color="235,199,112" layer="-1" fill="1"/>
      <poly  id="150424115" type="building.yes" shape="423.21,910.92,0.0 428.98,922.13,0.0 442.98,914.95,0.0 437.18,903.63,0.0 428.55,908.11,0.0 423.49,910.77,0.0 423.21,910.92,0.0" color="235,199,112" layer="-1" fill="1"/>
      <poly  id="150424128" type="building.yes" shape="345.28,829.54,0.0 349.0,838.15,0.0 358.21,834.17,0.0 354.48,825.56,0.0 347.69,828.5,0.0 346.6,828.98,0.0 345.28,829.54,0.0" color="235,199,112" layer="-1" fill="1"/>
      <poly  id="150424130" type="building.yes" shape="345.11,760.43,0.0 349.24,769.57,0.0 359.25,765.07,0.0 354.46,754.46,0.0 350.0,756.47,0.0 350.65,757.94,0.0 345.11,760.43,0.0" color="235,199,112" layer="-1" fill="1"/>
      <poly  id="150424132" type="building.yes" shape="466.46,887.92,0.0 472.44,899.17,0.0 481.93,894.12,0.0 478.35,887.39,0.0 475.95,882.86,0.0 474.31,883.74,0.0 466.46,887.92,0.0" color="235,199,112" layer="-1" fill="1"/>
      <poly  id="150424149" type="building.yes" shape="291.17,850.59,0.0 298.96,851.24,0.0 297.9,845.19,0.0 295.72,845.24,0.0 295.71,844.51,0.0 291.67,844.61,0.0 291.17,850.59,0.0" color="235,199,112" layer="-1" fill="1"/>
      <poly  id="150424163" type="building.yes" shape="505.64,866.21,0.0 510.7,878.11,0.0 521.53,873.5,0.0 518.71,866.88,0.0 519.74,866.44,0.0 517.49,861.16,0.0 505.64,866.21,0.0" color="235,199,112" layer="-1" fill="1"/>
      <poly  id="150424187" type="building.yes" shape="478.76,864.79,0.0 481.21,871.66,0.0 483.6,870.81,0.0 495.2,866.7,0.0 497.34,865.94,0.0 496.15,862.58,0.0 494.89,859.03,0.0 478.76,864.79,0.0" color="235,199,112" layer="-1" fill="1"/>
      <poly  id="150424193" type="building.yes" shape="406.7,757.78,0.0 409.21,762.91,0.0 418.48,758.36,0.0 414.07,749.35,0.0 409.81,751.49,0.0 408.6,752.05,0.0 410.5,756.03,0.0 406.7,757.78,0.0" color="235,199,112" layer="-1" fill="1"/>
      <poly  id="150424215" type="building.yes" shape="324.45,768.17,0.0 324.86,769.16,0.0 326.45,772.83,0.0 326.94,773.9,0.0 331.82,771.68,0.0 332.3,771.47,0.0 329.93,765.85,0.0 324.45,768.17,0.0" color="235,199,112" layer="-1" fill="1"/>
      <poly  id="150424226" type="building.yes" shape="396.66,800.59,0.0 402.88,813.61,0.0 408.57,810.88,0.0 407.55,808.75,0.0 411.24,806.98,0.0 405.76,795.49,0.0 401.83,797.38,0.0 402.11,797.98,0.0 396.66,800.59,0.0" color="235,199,112" layer="-1" fill="1"/>
      <poly  id="150424229" type="building.yes" shape="448.8,745.35,0.0 451.13,751.08,0.0 453.99,749.84,0.0 452.47,746.01,0.0 454.02,745.39,0.0 452.46,741.45,0.0 450.51,742.22,0.0 451.34,744.35,0.0 448.8,745.35,0.0" color="235,199,112" layer="-1" fill="1"/>
      <poly  id="150424233" type="building.yes" shape="424.87,798.2,0.0 428.82,806.29,0.0 437.73,802.07,0.0 437.41,801.33,0.0 439.85,800.12,0.0 438.2,796.84,0.0 428.17,801.7,0.0 426.21,797.67,0.0 424.87,798.2,0.0" color="235,199,112" layer="-1" fill="1"/>
      <poly  id="150424246" type="building.yes" shape="429.38,889.57,0.0 434.21,899.57,0.0 437.85,897.81,0.0 438.25,898.66,0.0 445.5,895.14,0.0 443.19,889.42,0.0 436.86,891.96,0.0 435.01,887.31,0.0 429.38,889.57,0.0" color="235,199,112" layer="-1" fill="1"/>
      <poly  id="150424287" type="building.yes" shape="434.02,868.43,0.0 436.38,873.79,0.0 435.01,874.39,0.0 439.38,884.38,0.0 453.04,878.39,0.0 446.86,864.26,0.0 441.62,866.55,0.0 441.09,865.33,0.0 434.02,868.43,0.0" color="235,199,112" layer="-1" fill="1"/>
      <poly  id="150424293" type="building.yes" shape="339.39,907.88,0.0 343.59,908.16,0.0 347.04,910.35,0.0 349.13,914.76,0.0 353.47,912.77,0.0 358.76,910.39,0.0 354.96,901.09,0.0 350.4,897.89,0.0 340.08,897.23,0.0 339.39,907.88,0.0" color="235,199,112" layer="-1" fill="1"/>
      <poly  id="150424306" type="building.yes" shape="417.8,886.47,0.0 420.65,892.65,0.0 430.17,888.26,0.0 428.52,884.67,0.0 427.71,885.03,0.0 424.78,878.69,0.0 422.83,879.59,0.0 420.28,880.76,0.0 422.01,884.53,0.0 417.8,886.47,0.0" color="235,199,112" layer="-1" fill="1"/>
      <poly  id="150424331" type="building.yes" shape="199.41,903.15,0.0 203.55,912.1,0.0 203.75,912.01,0.0 211.46,908.26,0.0 213.04,907.5,0.0 219.85,904.19,0.0 216.38,896.63,0.0 211.97,898.67,0.0 211.48,897.6,0.0 199.41,903.15,0.0" color="235,199,112" layer="-1" fill="1"/>
      <poly  id="150427568" type="building.yes" shape="373.48,697.07,0.0 382.32,715.27,0.0 411.03,701.15,0.0 404.24,687.35,0.0 402.34,683.49,0.0 402.19,683.16,0.0 390.09,689.04,0.0 396.62,702.48,0.0 389.9,705.75,0.0 383.35,692.29,0.0 373.48,697.07,0.0" color="235,199,112" layer="-1" fill="1"/>
      <poly  id="150427570" type="building.yes" shape="259.2,438.77,0.0 259.85,440.03,0.0 260.31,440.91,0.0 265.44,450.81,0.0 265.9,451.69,0.0 269.98,459.54,0.0 277.76,455.51,0.0 276.67,453.44,0.0 277.89,452.81,0.0 268.18,434.11,0.0 259.2,438.77,0.0" color="235,199,112" layer="-1" fill="1"/>
      <poly  id="150427576" type="building.yes" shape="386.85,623.25,0.0 388.98,626.99,0.0 388.25,627.42,0.0 390.11,630.68,0.0 390.75,630.32,0.0 392.6,633.57,0.0 403.09,627.58,0.0 399.66,621.57,0.0 400.6,621.03,0.0 398.19,616.78,0.0 386.85,623.25,0.0" color="235,199,112" layer="-1" fill="1"/>
      <poly  id="150427577" type="building.yes" shape="297.41,542.8,0.0 304.3,557.5,0.0 313.63,553.12,0.0 311.96,549.69,0.0 311.09,547.96,0.0 308.93,543.67,0.0 304.49,545.85,0.0 302.49,541.78,0.0 307.0,539.59,0.0 306.5,538.53,0.0 297.41,542.8,0.0" color="235,199,112" layer="-1" fill="1"/>
      <poly  id="150427579" type="building.yes" shape="204.07,621.19,0.0 207.6,629.28,0.0 208.64,628.83,0.0 210.45,633.01,0.0 220.63,628.56,0.0 220.19,627.56,0.0 223.49,626.13,0.0 221.43,621.45,0.0 219.44,622.31,0.0 216.56,615.74,0.0 204.07,621.19,0.0" color="235,199,112" layer="-1" fill="1"/>
      <poly  id="150427582" type="building.yes" shape="181.83,654.29,0.0 188.55,669.62,0.0 194.47,667.02,0.0 193.82,665.51,0.0 200.52,662.56,0.0 197.55,655.75,0.0 198.7,655.25,0.0 196.42,649.98,0.0 187.36,653.89,0.0 186.63,652.21,0.0 181.83,654.29,0.0" color="235,199,112" layer="-1" fill="1"/>
      <poly  id="150427584" type="building.yes" shape="198.09,491.88,0.0 205.83,495.88,0.0 206.53,494.52,0.0 213.16,497.94,0.0 219.44,485.73,0.0 218.3,485.15,0.0 214.53,483.22,0.0 207.23,479.5,0.0 204.67,484.5,0.0 202.45,483.36,0.0 198.09,491.88,0.0" color="235,199,112" layer="-1" fill="1"/>
      <poly  id="150427595" type="building.yes" shape="189.38,454.78,0.0 190.24,456.27,0.0 191.89,459.18,0.0 190.81,459.79,0.0 196.61,469.87,0.0 206.12,464.09,0.0 203.14,458.96,0.0 202.33,459.42,0.0 200.13,455.68,0.0 196.98,450.34,0.0 189.38,454.78,0.0" color="235,199,112" layer="-1" fill="1"/>
      <poly  id="150427597" type="building.yes" shape="216.77,504.32,0.0 224.41,508.09,0.0 228.75,510.22,0.0 232.83,501.94,0.0 231.77,501.42,0.0 233.16,498.64,0.0 228.62,496.42,0.0 226.43,495.35,0.0 222.8,493.59,0.0 222.24,493.3,0.0 216.77,504.32,0.0" color="235,199,112" layer="-1" fill="1"/>
      <poly  id="150427599" type="building.yes" shape="273.47,474.36,0.0 278.64,485.11,0.0 283.73,482.6,0.0 289.39,479.7,0.0 287.48,475.79,0.0 289.11,475.01,0.0 287.78,472.32,0.0 286.16,473.09,0.0 284.25,469.18,0.0 278.01,472.18,0.0 273.47,474.36,0.0" color="235,199,112" layer="-1" fill="1"/>
      <poly  id="150427610" type="building.yes" shape="292.89,516.65,0.0 295.13,521.22,0.0 297.5,520.73,0.0 298.81,520.43,0.0 314.07,517.16,0.0 309.71,508.33,0.0 307.48,509.43,0.0 305.42,505.26,0.0 303.83,506.04,0.0 295.52,510.18,0.0 297.56,514.35,0.0 292.89,516.65,0.0" color="235,199,112" layer="-1" fill="1"/>
      <poly  id="150427615" type="building.yes" shape="242.72,798.17,0.0 252.38,804.59,0.0 259.58,793.72,0.0 260.53,794.36,0.0 263.87,789.32,0.0 254.53,783.14,0.0 251.85,787.16,0.0 250.5,786.28,0.0 249.47,785.58,0.0 247.32,788.86,0.0 248.4,789.58,0.0 242.72,798.17,0.0" color="235,199,112" layer="-1" fill="1"/>
      <poly  id="150427619" type="building.yes" shape="226.27,803.63,0.0 230.03,806.27,0.0 227.51,809.85,0.0 229.23,810.97,0.0 232.22,812.9,0.0 232.65,812.28,0.0 233.27,812.71,0.0 241.44,799.87,0.0 237.21,797.17,0.0 234.38,802.49,0.0 229.05,799.67,0.0 226.27,803.63,0.0" color="235,199,112" layer="-1" fill="1"/>
      <poly  id="150427620" type="building.yes" shape="262.81,771.98,0.0 273.14,773.64,0.0 274.29,766.41,0.0 275.2,766.56,0.0 277.91,749.4,0.0 277.2,749.29,0.0 274.24,748.81,0.0 273.52,748.69,0.0 267.94,749.49,0.0 265.7,760.94,0.0 264.98,760.79,0.0 262.81,771.98,0.0" color="235,199,112" layer="-1" fill="1"/>
      <poly  id="150427621" type="building.yes" shape="288.29,495.77,0.0 295.52,510.18,0.0 303.83,506.04,0.0 302.89,504.17,0.0 304.15,503.55,0.0 301.54,498.25,0.0 300.37,498.82,0.0 299.59,497.24,0.0 300.62,496.74,0.0 299.02,493.54,0.0 297.77,491.02,0.0 288.29,495.77,0.0" color="235,199,112" layer="-1" fill="1"/>
      <poly  id="150427627" type="building.yes" shape="183.75,800.62,0.0 185.41,803.95,0.0 186.06,805.24,0.0 186.26,805.13,0.0 192.33,802.12,0.0 192.95,803.35,0.0 199.2,800.24,0.0 196.72,795.22,0.0 198.1,794.53,0.0 195.89,790.06,0.0 184.71,795.63,0.0 186.51,799.24,0.0 183.75,800.62,0.0" color="235,199,112" layer="-1" fill="1"/>
      <poly  id="150427633" type="building.yes" shape="344.74,562.69,0.0 348.94,570.76,0.0 355.17,567.53,0.0 356.82,568.25,0.0 358.0,570.75,0.0 357.93,572.43,0.0 351.53,575.84,0.0 355.92,584.09,0.0 361.09,581.35,0.0 361.4,581.94,0.0 375.44,574.49,0.0 364.11,552.65,0.0 344.74,562.69,0.0" color="235,199,112" layer="-1" fill="1"/>
      <poly  id="150427635" type="building.yes" shape="245.58,710.6,0.0 249.36,719.05,0.0 252.17,725.35,0.0 259.38,722.11,0.0 258.32,719.77,0.0 264.97,716.79,0.0 263.34,713.12,0.0 265.17,712.31,0.0 261.27,703.6,0.0 256.27,705.82,0.0 251.28,708.06,0.0 246.16,710.35,0.0 245.58,710.6,0.0" color="235,199,112" layer="-1" fill="1"/>
      <poly  id="150427636" type="building.yes" shape="222.78,716.61,0.0 224.55,720.82,0.0 223.52,721.24,0.0 227.92,731.82,0.0 232.27,730.01,0.0 230.58,725.94,0.0 236.21,723.59,0.0 234.08,718.47,0.0 233.1,718.87,0.0 230.07,711.55,0.0 224.19,713.99,0.0 224.92,715.72,0.0 222.78,716.61,0.0" color="235,199,112" layer="-1" fill="1"/>
      <poly  id="150427649" type="building.yes" shape="198.52,859.5,0.0 205.19,874.17,0.0 206.38,873.63,0.0 208.24,877.69,0.0 214.17,874.82,0.0 226.95,855.69,0.0 222.9,847.36,0.0 218.92,849.29,0.0 212.42,859.44,0.0 214.15,863.65,0.0 211.95,866.89,0.0 206.86,855.69,0.0 198.52,859.5,0.0" color="235,199,112" layer="-1" fill="1"/>
      <poly  id="150427653" type="building.yes" shape="169.81,711.25,0.0 173.97,720.99,0.0 182.73,717.24,0.0 183.31,718.57,0.0 190.13,715.64,0.0 189.51,714.2,0.0 196.4,711.24,0.0 191.57,699.94,0.0 186.67,702.02,0.0 188.46,706.2,0.0 176.84,711.16,0.0 175.79,708.69,0.0 169.81,711.25,0.0" color="235,199,112" layer="-1" fill="1"/>
      <poly  id="150427655" type="building.yes" shape="225.62,822.38,0.0 236.64,829.9,0.0 239.03,826.44,0.0 239.34,825.98,0.0 239.98,826.41,0.0 242.02,823.48,0.0 244.57,819.78,0.0 239.9,816.57,0.0 239.55,817.07,0.0 233.27,812.71,0.0 232.65,812.28,0.0 232.22,812.9,0.0 225.81,822.12,0.0 225.62,822.38,0.0" color="235,199,112" layer="-1" fill="1"/>
      <poly  id="150427660" type="building.yes" shape="236.93,416.41,0.0 245.92,431.49,0.0 254.98,426.09,0.0 251.58,420.38,0.0 257.39,416.91,0.0 259.05,419.67,0.0 268.72,413.9,0.0 267.04,411.11,0.0 272.73,407.71,0.0 279.4,418.89,0.0 288.17,413.66,0.0 286.59,410.81,0.0 276.67,392.73,0.0 236.93,416.41,0.0" color="235,199,112" layer="-1" fill="1"/>
      <poly  id="150427663" type="building.yes" shape="364.37,669.15,0.0 367.04,674.72,0.0 366.14,675.15,0.0 368.32,679.7,0.0 376.46,675.8,0.0 377.89,678.79,0.0 385.25,675.28,0.0 383.52,671.69,0.0 382.97,671.96,0.0 380.15,673.3,0.0 377.68,668.15,0.0 377.04,668.45,0.0 374.98,664.08,0.0 364.37,669.15,0.0" color="235,199,112" layer="-1" fill="1"/>
      <poly  id="150427669" type="building.yes" shape="264.77,512.79,0.0 266.3,512.84,0.0 266.16,516.62,0.0 269.42,516.75,0.0 269.34,518.7,0.0 278.01,519.02,0.0 278.23,513.16,0.0 275.51,513.06,0.0 275.82,505.0,0.0 272.21,504.88,0.0 272.44,498.83,0.0 266.53,498.62,0.0 266.3,504.85,0.0 265.05,504.81,0.0 264.77,512.79,0.0" color="235,199,112" layer="-1" fill="1"/>
      <poly  id="150427671" type="building.yes" shape="205.24,724.27,0.0 206.51,727.32,0.0 207.84,726.77,0.0 208.42,728.22,0.0 207.34,728.67,0.0 211.73,739.25,0.0 216.42,737.3,0.0 214.76,733.27,0.0 220.38,730.96,0.0 218.15,725.59,0.0 217.29,725.94,0.0 214.21,718.46,0.0 207.98,721.03,0.0 208.72,722.84,0.0 205.24,724.27,0.0" color="235,199,112" layer="-1" fill="1"/>
      <poly  id="150427674" type="building.yes" shape="187.68,574.19,0.0 188.09,581.83,0.0 187.83,590.51,0.0 190.18,590.5,0.0 194.37,590.35,0.0 198.84,590.18,0.0 198.48,578.74,0.0 199.67,578.78,0.0 199.07,573.36,0.0 196.19,567.63,0.0 190.44,567.78,0.0 190.6,570.88,0.0 193.55,570.73,0.0 193.7,573.82,0.0 187.68,574.19,0.0" color="235,199,112" layer="-1" fill="1"/>
      <poly  id="150427680" type="building.yes" shape="262.69,519.83,0.0 279.72,520.95,0.0 280.23,513.26,0.0 278.23,513.16,0.0 278.01,519.02,0.0 269.34,518.7,0.0 269.42,516.75,0.0 266.16,516.62,0.0 266.3,512.84,0.0 264.77,512.79,0.0 265.05,504.81,0.0 266.3,504.85,0.0 266.53,498.62,0.0 264.08,498.46,0.0 262.69,519.83,0.0" color="235,199,112" layer="-1" fill="1"/>
      <poly  id="150427685" type="building.yes" shape="303.12,736.16,0.0 304.98,740.24,0.0 305.51,740.0,0.0 308.31,746.13,0.0 311.93,744.46,0.0 312.53,745.75,0.0 319.37,742.6,0.0 315.9,734.97,0.0 314.77,735.49,0.0 314.15,734.13,0.0 312.68,730.91,0.0 311.57,731.41,0.0 307.93,733.1,0.0 306.68,733.66,0.0 307.01,734.37,0.0 303.12,736.16,0.0" color="235,199,112" layer="-1" fill="1"/>
      <poly  id="150427688" type="building.yes" shape="345.73,631.5,0.0 346.64,633.38,0.0 347.57,635.3,0.0 349.52,634.35,0.0 350.47,636.3,0.0 347.82,637.6,0.0 349.88,641.79,0.0 359.72,636.96,0.0 358.34,634.19,0.0 357.72,632.94,0.0 355.47,634.05,0.0 354.43,631.93,0.0 356.77,630.78,0.0 355.08,627.37,0.0 354.93,627.04,0.0 345.73,631.5,0.0" color="235,199,112" layer="-1" fill="1"/>
      <poly  id="150427698" type="building.yes" shape="165.78,847.9,0.0 170.04,856.85,0.0 170.97,856.41,0.0 182.29,881.09,0.0 178.95,882.71,0.0 182.32,890.08,0.0 198.94,881.9,0.0 193.34,875.79,0.0 191.69,873.36,0.0 190.63,871.82,0.0 189.51,869.55,0.0 187.1,863.87,0.0 186.44,862.17,0.0 185.87,859.86,0.0 183.77,849.7,0.0 181.02,851.15,0.0 176.32,842.3,0.0 165.78,847.9,0.0" color="235,199,112" layer="-1" fill="1"/>
      <poly  id="150427714" type="building.yes" shape="264.19,557.34,0.0 264.95,558.89,0.0 274.72,554.15,0.0 273.96,552.61,0.0 273.66,552.74,0.0 273.51,552.45,0.0 271.99,553.22,0.0 271.24,552.72,0.0 270.49,552.45,0.0 270.07,552.39,0.0 269.72,551.88,0.0 269.29,551.52,0.0 268.76,551.3,0.0 268.14,551.23,0.0 267.5,551.36,0.0 266.96,551.69,0.0 266.6,552.09,0.0 266.34,552.55,0.0 266.24,553.07,0.0 266.26,553.62,0.0 266.44,554.16,0.0 266.07,554.93,0.0 265.9,555.78,0.0 265.89,556.19,0.0 264.36,556.91,0.0 264.51,557.19,0.0 264.19,557.34,0.0" color="235,199,112" layer="-1" fill="1"/>