<?xml version="1.0" encoding="UTF-8"?>

<!-- generated on 2022-01-07 11:34:26 by Eclipse SUMO sumo Version v1_11_0+0910-f03f1d4
This data file and the accompanying materials
are made available under the terms of the Eclipse Public License v2.0
which accompanies this distribution, and is available at
http://www.eclipse.org/legal/epl-v20.html
SPDX-License-Identifier: EPL-2.0
<configuration xmlns:xsi="http://www.w3.org/2001/XMLSchema-instance" xsi:noNamespaceSchemaLocation="http://sumo.dlr.de/xsd/sumoConfiguration.xsd">

    <input>
        <net-file value="net.net.xml"/>
        <route-files value="input_routes.rou.xml"/>
        <additional-files value="input_additional.add.xml,input_additional2.add.xml"/>
    </input>

    <output>
        <write-license value="true"/>
    </output>

    <processing>
        <max-depart-delay value="60"/>
        <default.speeddev value="0"/>
    </processing>

    <report>
        <verbose value="true"/>
        <xml-validation value="never"/>
        <xml-validation.routes value="never"/>
        <duration-log.statistics value="true"/>
        <no-step-log value="true"/>
    </report>

</configuration>
-->

<tlsStates xmlns:xsi="http://www.w3.org/2001/XMLSchema-instance" xsi:noNamespaceSchemaLocation="http://sumo.dlr.de/xsd/tlsstates_file.xsd">
    <tlsState time="0.00" id="C0" programID="custom" phase="0" state="GGggrrrrGGggrrrr"/>
    <tlsState time="0.00" id="B0" programID="custom" phase="0" state="GGggrrrrGGggrrrr"/>
    <tlsState time="10.00" id="B0" programID="custom" phase="1" state="yyyyrrrryyyyrrrr"/>
    <tlsState time="13.00" id="B0" programID="custom" phase="2" state="rrrrGGggrrrrGGgg"/>
    <tlsState time="25.00" id="C0" programID="custom" phase="1" state="yyyyrrrryyyyrrrr"/>
    <tlsState time="28.00" id="C0" programID="custom" phase="2" state="rrrrGGggrrrrGGgg"/>
    <tlsState time="123.00" id="B0" programID="custom" phase="3" state="rrrryyyyrrrryyyy"/>
    <tlsState time="126.00" id="B0" programID="custom" phase="0" state="GGggrrrrGGggrrrr"/>
    <tlsState time="138.00" id="C0" programID="custom" phase="3" state="rrrryyyyrrrryyyy"/>
    <tlsState time="141.00" id="C0" programID="custom" phase="0" state="GGggrrrrGGggrrrr"/>
    <tlsState time="159.00" id="B0" programID="custom" phase="1" state="yyyyrrrryyyyrrrr"/>
    <tlsState time="162.00" id="B0" programID="custom" phase="2" state="rrrrGGggrrrrGGgg"/>
    <tlsState time="174.00" id="C0" programID="custom" phase="1" state="yyyyrrrryyyyrrrr"/>
    <tlsState time="177.00" id="C0" programID="custom" phase="2" state="rrrrGGggrrrrGGgg"/>
    <tlsState time="272.00" id="B0" programID="custom" phase="3" state="rrrryyyyrrrryyyy"/>
    <tlsState time="275.00" id="B0" programID="custom" phase="0" state="GGggrrrrGGggrrrr"/>
    <tlsState time="287.00" id="C0" programID="custom" phase="3" state="rrrryyyyrrrryyyy"/>
    <tlsState time="290.00" id="C0" programID="custom" phase="0" state="GGggrrrrGGggrrrr"/>
    <tlsState time="308.00" id="B0" programID="custom" phase="1" state="yyyyrrrryyyyrrrr"/>
    <tlsState time="311.00" id="B0" programID="custom" phase="2" state="rrrrGGggrrrrGGgg"/>
    <tlsState time="323.00" id="C0" programID="custom" phase="1" state="yyyyrrrryyyyrrrr"/>
    <tlsState time="326.00" id="C0" programID="custom" phase="2" state="rrrrGGggrrrrGGgg"/>
    <tlsState time="421.00" id="B0" programID="custom" phase="3" state="rrrryyyyrrrryyyy"/>
    <tlsState time="424.00" id="B0" programID="custom" phase="0" state="GGggrrrrGGggrrrr"/>
    <tlsState time="436.00" id="C0" programID="custom" phase="3" state="rrrryyyyrrrryyyy"/>
    <tlsState time="439.00" id="C0" programID="custom" phase="0" state="GGggrrrrGGggrrrr"/>
    <tlsState time="456.00" id="B0" programID="custom" phase="1" state="yyyyrrrryyyyrrrr"/>
    <tlsState time="459.00" id="B0" programID="custom" phase="2" state="rrrrGGggrrrrGGgg"/>
    <tlsState time="471.00" id="C0" programID="custom" phase="1" state="yyyyrrrryyyyrrrr"/>
    <tlsState time="474.00" id="C0" programID="custom" phase="2" state="rrrrGGggrrrrGGgg"/>
    <tlsState time="569.00" id="B0" programID="custom" phase="3" state="rrrryyyyrrrryyyy"/>
    <tlsState time="572.00" id="B0" programID="custom" phase="0" state="GGggrrrrGGggrrrr"/>
    <tlsState time="584.00" id="C0" programID="custom" phase="3" state="rrrryyyyrrrryyyy"/>
    <tlsState time="587.00" id="C0" programID="custom" phase="0" state="GGggrrrrGGggrrrr"/>
    <tlsState time="606.00" id="B0" programID="custom" phase="1" state="yyyyrrrryyyyrrrr"/>
    <tlsState time="609.00" id="B0" programID="custom" phase="2" state="rrrrGGggrrrrGGgg"/>
    <tlsState time="620.00" id="C0" programID="custom" phase="1" state="yyyyrrrryyyyrrrr"/>
    <tlsState time="623.00" id="C0" programID="custom" phase="2" state="rrrrGGggrrrrGGgg"/>
    <tlsState time="719.00" id="B0" programID="custom" phase="3" state="rrrryyyyrrrryyyy"/>
    <tlsState time="722.00" id="B0" programID="custom" phase="0" state="GGggrrrrGGggrrrr"/>
    <tlsState time="733.00" id="C0" programID="custom" phase="3" state="rrrryyyyrrrryyyy"/>
    <tlsState time="736.00" id="C0" programID="custom" phase="0" state="GGggrrrrGGggrrrr"/>
    <tlsState time="756.00" id="B0" programID="custom" phase="1" state="yyyyrrrryyyyrrrr"/>
    <tlsState time="759.00" id="B0" programID="custom" phase="2" state="rrrrGGggrrrrGGgg"/>
    <tlsState time="770.00" id="C0" programID="custom" phase="1" state="yyyyrrrryyyyrrrr"/>
    <tlsState time="773.00" id="C0" programID="custom" phase="2" state="rrrrGGggrrrrGGgg"/>
    <tlsState time="869.00" id="B0" programID="custom" phase="3" state="rrrryyyyrrrryyyy"/>
    <tlsState time="872.00" id="B0" programID="custom" phase="0" state="GGggrrrrGGggrrrr"/>
    <tlsState time="883.00" id="C0" programID="custom" phase="3" state="rrrryyyyrrrryyyy"/>
    <tlsState time="886.00" id="C0" programID="custom" phase="0" state="GGggrrrrGGggrrrr"/>
    <tlsState time="905.00" id="B0" programID="custom" phase="1" state="yyyyrrrryyyyrrrr"/>
    <tlsState time="908.00" id="B0" programID="custom" phase="2" state="rrrrGGggrrrrGGgg"/>
    <tlsState time="919.00" id="C0" programID="custom" phase="1" state="yyyyrrrryyyyrrrr"/>
    <tlsState time="922.00" id="C0" programID="custom" phase="2" state="rrrrGGggrrrrGGgg"/>
    <tlsState time="1018.00" id="B0" programID="custom" phase="3" state="rrrryyyyrrrryyyy"/>
    <tlsState time="1021.00" id="B0" programID="custom" phase="0" state="GGggrrrrGGggrrrr"/>
    <tlsState time="1032.00" id="C0" programID="custom" phase="3" state="rrrryyyyrrrryyyy"/>
    <tlsState time="1035.00" id="C0" programID="custom" phase="0" state="GGggrrrrGGggrrrr"/>
    <tlsState time="1052.00" id="B0" programID="custom" phase="1" state="yyyyrrrryyyyrrrr"/>
    <tlsState time="1055.00" id="B0" programID="custom" phase="2" state="rrrrGGggrrrrGGgg"/>
    <tlsState time="1068.00" id="C0" programID="custom" phase="1" state="yyyyrrrryyyyrrrr"/>
    <tlsState time="1071.00" id="C0" programID="custom" phase="2" state="rrrrGGggrrrrGGgg"/>
    <tlsState time="1165.00" id="B0" programID="custom" phase="3" state="rrrryyyyrrrryyyy"/>
    <tlsState time="1168.00" id="B0" programID="custom" phase="0" state="GGggrrrrGGggrrrr"/>
    <tlsState time="1181.00" id="C0" programID="custom" phase="3" state="rrrryyyyrrrryyyy"/>
    <tlsState time="1184.00" id="C0" programID="custom" phase="0" state="GGggrrrrGGggrrrr"/>
    <tlsState time="1199.00" id="B0" programID="custom" phase="1" state="yyyyrrrryyyyrrrr"/>
    <tlsState time="1202.00" id="B0" programID="custom" phase="2" state="rrrrGGggrrrrGGgg"/>
    <tlsState time="1217.00" id="C0" programID="custom" phase="1" state="yyyyrrrryyyyrrrr"/>
    <tlsState time="1220.00" id="C0" programID="custom" phase="2" state="rrrrGGggrrrrGGgg"/>
    <tlsState time="1312.00" id="B0" programID="custom" phase="3" state="rrrryyyyrrrryyyy"/>
    <tlsState time="1315.00" id="B0" programID="custom" phase="0" state="GGggrrrrGGggrrrr"/>
    <tlsState time="1330.00" id="C0" programID="custom" phase="3" state="rrrryyyyrrrryyyy"/>
    <tlsState time="1333.00" id="C0" programID="custom" phase="0" state="GGggrrrrGGggrrrr"/>
    <tlsState time="1346.00" id="B0" programID="custom" phase="1" state="yyyyrrrryyyyrrrr"/>
    <tlsState time="1349.00" id="B0" programID="custom" phase="2" state="rrrrGGggrrrrGGgg"/>
    <tlsState time="1366.00" id="C0" programID="custom" phase="1" state="yyyyrrrryyyyrrrr"/>
    <tlsState time="1369.00" id="C0" programID="custom" phase="2" state="rrrrGGggrrrrGGgg"/>
    <tlsState time="1459.00" id="B0" programID="custom" phase="3" state="rrrryyyyrrrryyyy"/>
    <tlsState time="1462.00" id="B0" programID="custom" phase="0" state="GGggrrrrGGggrrrr"/>
    <tlsState time="1479.00" id="C0" programID="custom" phase="3" state="rrrryyyyrrrryyyy"/>
    <tlsState time="1482.00" id="C0" programID="custom" phase="0" state="GGggrrrrGGggrrrr"/>
    <tlsState time="1494.00" id="B0" programID="custom" phase="1" state="yyyyrrrryyyyrrrr"/>
    <tlsState time="1497.00" id="B0" programID="custom" phase="2" state="rrrrGGggrrrrGGgg"/>
    <tlsState time="1514.00" id="C0" programID="custom" phase="1" state="yyyyrrrryyyyrrrr"/>
    <tlsState time="1517.00" id="C0" programID="custom" phase="2" state="rrrrGGggrrrrGGgg"/>
    <tlsState time="1607.00" id="B0" programID="custom" phase="3" state="rrrryyyyrrrryyyy"/>
    <tlsState time="1610.00" id="B0" programID="custom" phase="0" state="GGggrrrrGGggrrrr"/>
    <tlsState time="1627.00" id="C0" programID="custom" phase="3" state="rrrryyyyrrrryyyy"/>
    <tlsState time="1630.00" id="C0" programID="custom" phase="0" state="GGggrrrrGGggrrrr"/>
    <tlsState time="1643.00" id="B0" programID="custom" phase="1" state="yyyyrrrryyyyrrrr"/>
    <tlsState time="1646.00" id="B0" programID="custom" phase="2" state="rrrrGGggrrrrGGgg"/>
    <tlsState time="1661.00" id="C0" programID="custom" phase="1" state="yyyyrrrryyyyrrrr"/>
    <tlsState time="1664.00" id="C0" programID="custom" phase="2" state="rrrrGGggrrrrGGgg"/>
    <tlsState time="1756.00" id="B0" programID="custom" phase="3" state="rrrryyyyrrrryyyy"/>
    <tlsState time="1759.00" id="B0" programID="custom" phase="0" state="GGggrrrrGGggrrrr"/>
    <tlsState time="1774.00" id="C0" programID="custom" phase="3" state="rrrryyyyrrrryyyy"/>
    <tlsState time="1777.00" id="C0" programID="custom" phase="0" state="GGggrrrrGGggrrrr"/>
    <tlsState time="1792.00" id="B0" programID="custom" phase="1" state="yyyyrrrryyyyrrrr"/>
    <tlsState time="1795.00" id="B0" programID="custom" phase="2" state="rrrrGGggrrrrGGgg"/>
    <tlsState time="1808.00" id="C0" programID="custom" phase="1" state="yyyyrrrryyyyrrrr"/>
    <tlsState time="1811.00" id="C0" programID="custom" phase="2" state="rrrrGGggrrrrGGgg"/>
    <tlsState time="1905.00" id="B0" programID="custom" phase="3" state="rrrryyyyrrrryyyy"/>
    <tlsState time="1908.00" id="B0" programID="custom" phase="0" state="GGggrrrrGGggrrrr"/>
    <tlsState time="1921.00" id="C0" programID="custom" phase="3" state="rrrryyyyrrrryyyy"/>
    <tlsState time="1924.00" id="C0" programID="custom" phase="0" state="GGggrrrrGGggrrrr"/>
    <tlsState time="1939.00" id="B0" programID="custom" phase="1" state="yyyyrrrryyyyrrrr"/>
    <tlsState time="1942.00" id="B0" programID="custom" phase="2" state="rrrrGGggrrrrGGgg"/>
    <tlsState time="1957.00" id="C0" programID="custom" phase="1" state="yyyyrrrryyyyrrrr"/>
    <tlsState time="1960.00" id="C0" programID="custom" phase="2" state="rrrrGGggrrrrGGgg"/>
    <tlsState time="2052.00" id="B0" programID="custom" phase="3" state="rrrryyyyrrrryyyy"/>
    <tlsState time="2055.00" id="B0" programID="custom" phase="0" state="GGggrrrrGGggrrrr"/>
    <tlsState time="2070.00" id="C0" programID="custom" phase="3" state="rrrryyyyrrrryyyy"/>
    <tlsState time="2073.00" id="C0" programID="custom" phase="0" state="GGggrrrrGGggrrrr"/>
    <tlsState time="2090.00" id="B0" programID="custom" phase="1" state="yyyyrrrryyyyrrrr"/>
    <tlsState time="2093.00" id="B0" programID="custom" phase="2" state="rrrrGGggrrrrGGgg"/>
    <tlsState time="2105.00" id="C0" programID="custom" phase="1" state="yyyyrrrryyyyrrrr"/>
    <tlsState time="2108.00" id="C0" programID="custom" phase="2" state="rrrrGGggrrrrGGgg"/>
    <tlsState time="2203.00" id="B0" programID="custom" phase="3" state="rrrryyyyrrrryyyy"/>
    <tlsState time="2206.00" id="B0" programID="custom" phase="0" state="GGggrrrrGGggrrrr"/>
    <tlsState time="2218.00" id="C0" programID="custom" phase="3" state="rrrryyyyrrrryyyy"/>
    <tlsState time="2221.00" id="C0" programID="custom" phase="0" state="GGggrrrrGGggrrrr"/>
    <tlsState time="2237.00" id="B0" programID="custom" phase="1" state="yyyyrrrryyyyrrrr"/>
    <tlsState time="2240.00" id="B0" programID="custom" phase="2" state="rrrrGGggrrrrGGgg"/>
    <tlsState time="2252.00" id="C0" programID="custom" phase="1" state="yyyyrrrryyyyrrrr"/>
    <tlsState time="2255.00" id="C0" programID="custom" phase="2" state="rrrrGGggrrrrGGgg"/>
    <tlsState time="2350.00" id="B0" programID="custom" phase="3" state="rrrryyyyrrrryyyy"/>
    <tlsState time="2353.00" id="B0" programID="custom" phase="0" state="GGggrrrrGGggrrrr"/>
    <tlsState time="2365.00" id="C0" programID="custom" phase="3" state="rrrryyyyrrrryyyy"/>
    <tlsState time="2368.00" id="C0" programID="custom" phase="0" state="GGggrrrrGGggrrrr"/>
    <tlsState time="2385.00" id="B0" programID="custom" phase="1" state="yyyyrrrryyyyrrrr"/>
    <tlsState time="2388.00" id="B0" programID="custom" phase="2" state="rrrrGGggrrrrGGgg"/>
    <tlsState time="2399.00" id="C0" programID="custom" phase="1" state="yyyyrrrryyyyrrrr"/>
    <tlsState time="2402.00" id="C0" programID="custom" phase="2" state="rrrrGGggrrrrGGgg"/>
    <tlsState time="2498.00" id="B0" programID="custom" phase="3" state="rrrryyyyrrrryyyy"/>
    <tlsState time="2501.00" id="B0" programID="custom" phase="0" state="GGggrrrrGGggrrrr"/>
    <tlsState time="2512.00" id="C0" programID="custom" phase="3" state="rrrryyyyrrrryyyy"/>
    <tlsState time="2515.00" id="C0" programID="custom" phase="0" state="GGggrrrrGGggrrrr"/>
    <tlsState time="2534.00" id="B0" programID="custom" phase="1" state="yyyyrrrryyyyrrrr"/>
    <tlsState time="2537.00" id="B0" programID="custom" phase="2" state="rrrrGGggrrrrGGgg"/>
    <tlsState time="2545.00" id="C0" programID="custom" phase="1" state="yyyyrrrryyyyrrrr"/>
    <tlsState time="2548.00" id="C0" programID="custom" phase="2" state="rrrrGGggrrrrGGgg"/>
    <tlsState time="2647.00" id="B0" programID="custom" phase="3" state="rrrryyyyrrrryyyy"/>
    <tlsState time="2650.00" id="B0" programID="custom" phase="0" state="GGggrrrrGGggrrrr"/>
    <tlsState time="2658.00" id="C0" programID="custom" phase="3" state="rrrryyyyrrrryyyy"/>
    <tlsState time="2661.00" id="C0" programID="custom" phase="0" state="GGggrrrrGGggrrrr"/>
    <tlsState time="2683.00" id="B0" programID="custom" phase="1" state="yyyyrrrryyyyrrrr"/>
    <tlsState time="2686.00" id="B0" programID="custom" phase="2" state="rrrrGGggrrrrGGgg"/>
    <tlsState time="2695.00" id="C0" programID="custom" phase="1" state="yyyyrrrryyyyrrrr"/>
    <tlsState time="2698.00" id="C0" programID="custom" phase="2" state="rrrrGGggrrrrGGgg"/>
    <tlsState time="2796.00" id="B0" programID="custom" phase="3" state="rrrryyyyrrrryyyy"/>
    <tlsState time="2799.00" id="B0" programID="custom" phase="0" state="GGggrrrrGGggrrrr"/>
    <tlsState time="2808.00" id="C0" programID="custom" phase="3" state="rrrryyyyrrrryyyy"/>
    <tlsState time="2811.00" id="C0" programID="custom" phase="0" state="GGggrrrrGGggrrrr"/>
    <tlsState time="2835.00" id="B0" programID="custom" phase="1" state="yyyyrrrryyyyrrrr"/>
    <tlsState time="2838.00" id="B0" programID="custom" phase="2" state="rrrrGGggrrrrGGgg"/>
    <tlsState time="2844.00" id="C0" programID="custom" phase="1" state="yyyyrrrryyyyrrrr"/>
    <tlsState time="2847.00" id="C0" programID="custom" phase="2" state="rrrrGGggrrrrGGgg"/>
    <tlsState time="2948.00" id="B0" programID="custom" phase="3" state="rrrryyyyrrrryyyy"/>
    <tlsState time="2951.00" id="B0" programID="custom" phase="0" state="GGggrrrrGGggrrrr"/>
    <tlsState time="2957.00" id="C0" programID="custom" phase="3" state="rrrryyyyrrrryyyy"/>
    <tlsState time="2960.00" id="C0" programID="custom" phase="0" state="GGggrrrrGGggrrrr"/>
    <tlsState time="2984.00" id="B0" programID="custom" phase="1" state="yyyyrrrryyyyrrrr"/>
    <tlsState time="2987.00" id="B0" programID="custom" phase="2" state="rrrrGGggrrrrGGgg"/>
    <tlsState time="2991.00" id="C0" programID="custom" phase="1" state="yyyyrrrryyyyrrrr"/>
    <tlsState time="2994.00" id="C0" programID="custom" phase="2" state="rrrrGGggrrrrGGgg"/>
    <tlsState time="3097.00" id="B0" programID="custom" phase="3" state="rrrryyyyrrrryyyy"/>
    <tlsState time="3100.00" id="B0" programID="custom" phase="0" state="GGggrrrrGGggrrrr"/>
    <tlsState time="3104.00" id="C0" programID="custom" phase="3" state="rrrryyyyrrrryyyy"/>
    <tlsState time="3107.00" id="C0" programID="custom" phase="0" state="GGggrrrrGGggrrrr"/>
    <tlsState time="3131.00" id="B0" programID="custom" phase="1" state="yyyyrrrryyyyrrrr"/>
    <tlsState time="3134.00" id="B0" programID="custom" phase="2" state="rrrrGGggrrrrGGgg"/>
    <tlsState time="3140.00" id="C0" programID="custom" phase="1" state="yyyyrrrryyyyrrrr"/>
    <tlsState time="3143.00" id="C0" programID="custom" phase="2" state="rrrrGGggrrrrGGgg"/>
    <tlsState time="3244.00" id="B0" programID="custom" phase="3" state="rrrryyyyrrrryyyy"/>
    <tlsState time="3247.00" id="B0" programID="custom" phase="0" state="GGggrrrrGGggrrrr"/>
    <tlsState time="3253.00" id="C0" programID="custom" phase="3" state="rrrryyyyrrrryyyy"/>
    <tlsState time="3256.00" id="C0" programID="custom" phase="0" state="GGggrrrrGGggrrrr"/>
    <tlsState time="3282.00" id="B0" programID="custom" phase="1" state="yyyyrrrryyyyrrrr"/>
    <tlsState time="3285.00" id="B0" programID="custom" phase="2" state="rrrrGGggrrrrGGgg"/>
    <tlsState time="3289.00" id="C0" programID="custom" phase="1" state="yyyyrrrryyyyrrrr"/>
    <tlsState time="3292.00" id="C0" programID="custom" phase="2" state="rrrrGGggrrrrGGgg"/>
    <tlsState time="3395.00" id="B0" programID="custom" phase="3" state="rrrryyyyrrrryyyy"/>
    <tlsState time="3398.00" id="B0" programID="custom" phase="0" state="GGggrrrrGGggrrrr"/>
    <tlsState time="3402.00" id="C0" programID="custom" phase="3" state="rrrryyyyrrrryyyy"/>
    <tlsState time="3405.00" id="C0" programID="custom" phase="0" state="GGggrrrrGGggrrrr"/>
    <tlsState time="3434.00" id="B0" programID="custom" phase="1" state="yyyyrrrryyyyrrrr"/>
    <tlsState time="3435.00" id="C0" programID="custom" phase="1" state="yyyyrrrryyyyrrrr"/>
    <tlsState time="3437.00" id="B0" programID="custom" phase="2" state="rrrrGGggrrrrGGgg"/>
    <tlsState time="3438.00" id="C0" programID="custom" phase="2" state="rrrrGGggrrrrGGgg"/>
    <tlsState time="3547.00" id="B0" programID="custom" phase="3" state="rrrryyyyrrrryyyy"/>
    <tlsState time="3548.00" id="C0" programID="custom" phase="3" state="rrrryyyyrrrryyyy"/>
    <tlsState time="3550.00" id="B0" programID="custom" phase="0" state="GGggrrrrGGggrrrr"/>
    <tlsState time="3551.00" id="C0" programID="custom" phase="0" state="GGggrrrrGGggrrrr"/>
    <tlsState time="3582.00" id="C0" programID="custom" phase="1" state="yyyyrrrryyyyrrrr"/>
    <tlsState time="3582.00" id="B0" programID="custom" phase="1" state="yyyyrrrryyyyrrrr"/>
    <tlsState time="3585.00" id="C0" programID="custom" phase="2" state="rrrrGGggrrrrGGgg"/>
    <tlsState time="3585.00" id="B0" programID="custom" phase="2" state="rrrrGGggrrrrGGgg"/>
    <tlsState time="3695.00" id="C0" programID="custom" phase="3" state="rrrryyyyrrrryyyy"/>
    <tlsState time="3695.00" id="B0" programID="custom" phase="3" state="rrrryyyyrrrryyyy"/>
    <tlsState time="3698.00" id="C0" programID="custom" phase="0" state="GGggrrrrGGggrrrr"/>
    <tlsState time="3698.00" id="B0" programID="custom" phase="0" state="GGggrrrrGGggrrrr"/>
</tlsStates>
