<?xml version="1.0" encoding="UTF-8"?>

<!-- generated on 16.11.2018 11:10:47 by Eclipse SUMO netedit Version v1_0_0+0907-4934d005c3
<configuration xmlns:xsi="http://www.w3.org/2001/XMLSchema-instance" xsi:noNamespaceSchemaLocation="http://sumo.dlr.de/xsd/netconvertConfiguration.xsd">

    <input>
        <sumo-net-file value="C:/Users/alva_pa/.texttest/tmp/netedit.gui.16Nov111037.7160/netedit.gui/additionalElements/containerStop/inspect/id\input_net.net.xml"/>
    </input>

    <output>
        <output-file value="C:/Users/alva_pa/.texttest/tmp/netedit.gui.16Nov111037.7160/netedit.gui/additionalElements/containerStop/inspect/id\net.net.xml"/>
    </output>

    <processing>
        <offset.disable-normalization value="true"/>
        <lefthand value="false"/>
    </processing>

    <junctions>
        <no-turnarounds value="true"/>
        <junctions.corner-detail value="5"/>
        <junctions.limit-turn-speed value="5.5"/>
        <rectangular-lane-cut value="false"/>
    </junctions>

    <pedestrian>
        <walkingareas value="false"/>
    </pedestrian>

    <netedit>
        <additionals-output value="C:/Users/alva_pa/.texttest/tmp/netedit.gui.16Nov111037.7160/netedit.gui/additionalElements/containerStop/inspect/id\additionals.xml"/>
        <shapes-output value="C:/Users/alva_pa/.texttest/tmp/netedit.gui.16Nov111037.7160/netedit.gui/additionalElements/containerStop/inspect/id\shapes.xml"/>
    </netedit>

    <visualisation>
        <gui-settings-file value="C:/Users/alva_pa/.texttest/tmp/netedit.gui.16Nov111037.7160/netedit.gui/additionalElements/containerStop/inspect/id\gui-settings.xml"/>
        <window-size value="700,500"/>
        <window-pos value="50,50"/>
        <gui-testing value="true"/>
        <gui-testing-debug value="true"/>
    </visualisation>

    <report>
        <no-warnings value="true"/>
        <error-log value="C:/Users/alva_pa/.texttest/tmp/netedit.gui.16Nov111037.7160/netedit.gui/additionalElements/containerStop/inspect/id\log.txt"/>
    </report>

</configuration>
-->

<additional xmlns:xsi="http://www.w3.org/2001/XMLSchema-instance" xsi:noNamespaceSchemaLocation="http://sumo.dlr.de/xsd/additional_file.xsd">
    <containerStop id="containerStop_gneE2_1_1" lane="gneE2_1" startPos="32.00" endPos="42.00"/>
    <containerStop id="correctID" lane="gneE2_1" startPos="12.00" endPos="22.00"/>
</additional>
