<routes>    
    <vType id="p0" vClass="pedestrian" width="0.70" length="0.35" minGap="1" guiShape="pedestrian" color="255,0,0"/>
    <person id="p0" type="p0" depart="0">
        <walk edges="SC WC" departPos="-20" arrivalPos="-20"/>
    </person>
</routes>
