<routes xmlns:xsi="http://www.w3.org/2001/XMLSchema-instance" xsi:noNamespaceSchemaLocation="http://sumo.dlr.de/xsd/routes_file.xsd">

<vType id="bicycle" vClass="bicycle" laneChangeModel="SL2015" accel="0.5" decel="1.0" length="2" minGap="1" maxSpeed="6" latAlignment="center"/>
<vType id="passenger" vClass="passenger" latAlignment="left" laneChangeModel="SL2015" />

<route id="NS" edges="NS1 NS2 NS3"/>  
<vehicle id="passenger" type="passenger" route="NS" depart="0" departPos="-5" departLane="1"/>
<vehicle id="bike" type="bicycle" route="NS" depart="5" departPos="-5"/>

</routes>
