<?xml version="1.0"?>

<!-- generated on Thu Mar 26 12:00:37 2009 by SUMO netgen Version dev-SVN-r6942
<configuration>

   <random_network>
      <random-net>true</random-net>
      <rand-iterations>20</rand-iterations>
   </random_network>

   <output>
      <plain-output>rand</plain-output>
   </output>

   <projection>
      <use-projection>true</use-projection>
   </projection>

   <random_number>
      <abs-rand>true</abs-rand>
   </random_number>

</configuration>
-->

<edges xmlns:xsi="http://www.w3.org/2001/XMLSchema-instance" xsi:noNamespaceSchemaLocation="http://sumo-sim.org/xsd/edges_file.xsd">
   <edge id="103" from="26" to="102" numLanes="1" speed="13.90" shape="667.05,435.82 822.75,421.00"/>
   <edge id="109" from="28" to="108" numLanes="1" speed="13.90" shape="777.45,719.15 612.66,691.24"/>
   <edge id="111" from="28" to="110" numLanes="1" speed="13.90" shape="777.45,719.15 969.87,588.65"/>
   <edge id="121" from="28" to="120" numLanes="1" speed="13.90" shape="777.45,719.15 788.48,842.64"/>
   <edge id="123" from="37" to="122" numLanes="1" speed="13.90" shape="490.21,149.86 526.13,0.00"/>
   <edge id="125" from="37" to="124" numLanes="1" speed="13.90" shape="490.21,149.86 687.59,39.14"/>
   <edge id="13" from="1" to="12" numLanes="1" speed="13.90" shape="446.66,616.68 346.49,679.29"/>
   <edge id="14" from="2" to="6" numLanes="1" speed="13.90" shape="664.25,580.89 473.26,441.01"/>
   <edge id="16" from="2" to="15" numLanes="1" speed="13.90" shape="664.25,580.89 772.12,605.60"/>
   <edge id="18" from="6" to="17" numLanes="1" speed="13.90" shape="473.26,441.01 541.82,311.80"/>
   <edge id="19" from="6" to="8" numLanes="1" speed="13.90" shape="473.26,441.01 333.72,481.99"/>
   <edge id="24" from="12" to="23" numLanes="1" speed="13.90" shape="346.49,679.29 160.56,576.00"/>
   <edge id="27" from="15" to="26" numLanes="1" speed="13.90" shape="772.12,605.60 667.05,435.82"/>
   <edge id="29" from="15" to="28" numLanes="1" speed="13.90" shape="772.12,605.60 777.45,719.15"/>
   <edge id="3" from="1" to="2" numLanes="1" speed="13.90" shape="446.66,616.68 664.25,580.89"/>
   <edge id="30" from="17" to="26" numLanes="1" speed="13.90" shape="541.82,311.80 667.05,435.82"/>
   <edge id="38" from="17" to="37" numLanes="1" speed="13.90" shape="541.82,311.80 490.21,149.86"/>
   <edge id="39" from="8" to="23" numLanes="1" speed="13.90" shape="333.72,481.99 160.56,576.00"/>
   <edge id="42" from="23" to="41" numLanes="1" speed="13.90" shape="160.56,576.00 0.00,554.84"/>
   <edge id="48" from="23" to="47" numLanes="1" speed="13.90" shape="160.56,576.00 1.63,726.76"/>
   <edge id="55" from="26" to="54" numLanes="1" speed="13.90" shape="667.05,435.82 750.25,321.07"/>
   <edge id="7" from="1" to="6" numLanes="1" speed="13.90" shape="446.66,616.68 473.26,441.01"/>
   <edge id="9" from="1" to="8" numLanes="1" speed="13.90" shape="446.66,616.68 333.72,481.99"/>
</edges>
