<?xml version="1.0" encoding="UTF-8"?>

<!-- generated on 10/10/13 16:14:39 by SUMO netconvert Version dev-SVN-rUNKNOWN
<?xml version="1.0" encoding="UTF-8"?>

<configuration xmlns:xsi="http://www.w3.org/2001/XMLSchema-instance" xsi:noNamespaceSchemaLocation="http://sumo.dlr.de/xsd/netconvertConfiguration.xsd">

    <input>
        <node-files value="nodes.nod.xml"/>
        <edge-files value="edges.edg.xml"/>
        <connection-files value="connections.con.xml"/>
    </input>

    <output>
        <output-file value="net.net.xml"/>
    </output>

    <report>
        <verbose value="true"/>
    </report>

</configuration>
-->

<net version="0.13" xmlns:xsi="http://www.w3.org/2001/XMLSchema-instance" xsi:noNamespaceSchemaLocation="http://sumo.dlr.de/xsd/net_file.xsd">

    <location netOffset="0.00,0.00" convBoundary="0.00,0.00,5500.00,3000.00" origBoundary="0.00,0.00,5500.00,3000.00" projParameter="!"/>

    <edge id=":0/1_0" function="internal">
        <lane id=":0/1_0_0" index="0" speed="13.89" length="4.82" shape="0.00,501.65 -1.24,500.82 -1.65,500.00 -1.24,499.18 0.00,498.35"/>
    </edge>
    <edge id=":0/2_0" function="internal">
        <lane id=":0/2_0_0" index="0" speed="13.89" length="4.82" shape="0.00,1001.65 -1.24,1000.83 -1.65,1000.00 -1.24,999.17 0.00,998.35"/>
    </edge>
    <edge id=":0/3_0" function="internal">
        <lane id=":0/3_0_0" index="0" speed="13.89" length="4.82" shape="0.00,1501.65 -1.24,1500.82 -1.65,1500.00 -1.24,1499.18 0.00,1498.35"/>
    </edge>
    <edge id=":0/4_0" function="internal">
        <lane id=":0/4_0_0" index="0" speed="13.89" length="4.82" shape="0.00,2001.65 -1.24,2000.83 -1.65,2000.00 -1.24,1999.17 0.00,1998.35"/>
    </edge>
    <edge id=":0/5_0" function="internal">
        <lane id=":0/5_0_0" index="0" speed="13.89" length="4.82" shape="0.00,2501.65 -1.24,2500.83 -1.65,2500.00 -1.24,2499.18 0.00,2498.35"/>
    </edge>
    <edge id=":1/0_0" function="internal">
        <lane id=":1/0_0_0" index="0" speed="13.89" length="4.82" shape="498.35,0.00 499.18,-1.24 500.00,-1.65 500.82,-1.24 501.65,0.00"/>
    </edge>
    <edge id=":1/1_0" function="internal">
        <lane id=":1/1_0_0" index="0" speed="13.89" length="5.00" shape="495.05,508.05 494.86,506.69 494.28,505.73 493.31,505.14 491.95,504.95"/>
    </edge>
    <edge id=":1/1_1" function="internal">
        <lane id=":1/1_1_0" index="0" speed="13.89" length="16.10" shape="495.05,508.05 495.05,503.27 495.05,500.00 495.05,496.73 495.05,491.95"/>
    </edge>
    <edge id=":1/1_2" function="internal">
        <lane id=":1/1_2_0" index="0" speed="13.89" length="16.10" shape="498.35,508.05 498.35,503.27 498.35,500.00 498.35,496.73 498.35,491.95"/>
    </edge>
    <edge id=":1/1_3" function="internal">
        <lane id=":1/1_3_0" index="0" speed="13.89" length="6.80" shape="498.35,508.05 498.96,503.81 500.25,501.65"/>
    </edge>
    <edge id=":1/1_18" function="internal">
        <lane id=":1/1_18_0" index="0" speed="13.89" length="8.84" shape="500.25,501.65 500.78,500.78 503.81,498.96 508.05,498.35"/>
    </edge>
    <edge id=":1/1_4" function="internal">
        <lane id=":1/1_4_0" index="0" speed="13.89" length="2.41" shape="498.35,508.05 499.18,506.81 500.00,506.40"/>
    </edge>
    <edge id=":1/1_19" function="internal">
        <lane id=":1/1_19_0" index="0" speed="13.89" length="2.41" shape="500.00,506.40 500.82,506.81 501.65,508.05"/>
    </edge>
    <edge id=":1/1_5" function="internal">
        <lane id=":1/1_5_0" index="0" speed="13.89" length="5.00" shape="508.05,504.95 506.69,505.14 505.73,505.72 505.14,506.69 504.95,508.05"/>
    </edge>
    <edge id=":1/1_6" function="internal">
        <lane id=":1/1_6_0" index="0" speed="13.89" length="16.10" shape="508.05,501.65 503.27,501.65 500.00,501.65 496.73,501.65 491.95,501.65"/>
    </edge>
    <edge id=":1/1_7" function="internal">
        <lane id=":1/1_7_0" index="0" speed="13.89" length="3.13" shape="508.05,501.65 504.95,501.21"/>
    </edge>
    <edge id=":1/1_20" function="internal">
        <lane id=":1/1_20_0" index="0" speed="13.89" length="12.51" shape="504.95,501.21 503.81,501.04 500.77,499.22 498.96,496.19 498.35,491.95"/>
    </edge>
    <edge id=":1/1_8" function="internal">
        <lane id=":1/1_8_0" index="0" speed="13.89" length="2.41" shape="508.05,501.65 506.81,500.82 506.40,500.00"/>
    </edge>
    <edge id=":1/1_21" function="internal">
        <lane id=":1/1_21_0" index="0" speed="13.89" length="2.41" shape="506.40,500.00 506.81,499.18 508.05,498.35"/>
    </edge>
    <edge id=":1/1_9" function="internal">
        <lane id=":1/1_9_0" index="0" speed="13.89" length="5.00" shape="504.95,491.95 505.14,493.31 505.72,494.27 506.69,494.86 508.05,495.05"/>
    </edge>
    <edge id=":1/1_10" function="internal">
        <lane id=":1/1_10_0" index="0" speed="13.89" length="16.10" shape="504.95,491.95 504.95,496.73 504.95,500.00 504.95,503.27 504.95,508.05"/>
    </edge>
    <edge id=":1/1_11" function="internal">
        <lane id=":1/1_11_0" index="0" speed="13.89" length="16.10" shape="501.65,491.95 501.65,496.73 501.65,500.00 501.65,503.27 501.65,508.05"/>
    </edge>
    <edge id=":1/1_12" function="internal">
        <lane id=":1/1_12_0" index="0" speed="13.89" length="6.80" shape="501.65,491.95 501.04,496.19 499.75,498.35"/>
    </edge>
    <edge id=":1/1_22" function="internal">
        <lane id=":1/1_22_0" index="0" speed="13.89" length="8.84" shape="499.75,498.35 499.22,499.23 496.19,501.04 491.95,501.65"/>
    </edge>
    <edge id=":1/1_13" function="internal">
        <lane id=":1/1_13_0" index="0" speed="13.89" length="2.41" shape="501.65,491.95 500.82,493.19 500.00,493.60"/>
    </edge>
    <edge id=":1/1_23" function="internal">
        <lane id=":1/1_23_0" index="0" speed="13.89" length="2.41" shape="500.00,493.60 499.18,493.19 498.35,491.95"/>
    </edge>
    <edge id=":1/1_14" function="internal">
        <lane id=":1/1_14_0" index="0" speed="13.89" length="5.00" shape="491.95,495.05 493.31,494.86 494.27,494.28 494.86,493.31 495.05,491.95"/>
    </edge>
    <edge id=":1/1_15" function="internal">
        <lane id=":1/1_15_0" index="0" speed="13.89" length="16.10" shape="491.95,498.35 496.73,498.35 500.00,498.35 503.27,498.35 508.05,498.35"/>
    </edge>
    <edge id=":1/1_16" function="internal">
        <lane id=":1/1_16_0" index="0" speed="13.89" length="3.13" shape="491.95,498.35 495.05,498.79"/>
    </edge>
    <edge id=":1/1_24" function="internal">
        <lane id=":1/1_24_0" index="0" speed="13.89" length="12.51" shape="495.05,498.79 496.19,498.96 499.23,500.78 501.04,503.81 501.65,508.05"/>
    </edge>
    <edge id=":1/1_17" function="internal">
        <lane id=":1/1_17_0" index="0" speed="13.89" length="2.41" shape="491.95,498.35 493.19,499.18 493.60,500.00"/>
    </edge>
    <edge id=":1/1_25" function="internal">
        <lane id=":1/1_25_0" index="0" speed="13.89" length="2.41" shape="493.60,500.00 493.19,500.82 491.95,501.65"/>
    </edge>
    <edge id=":1/2_0" function="internal">
        <lane id=":1/2_0_0" index="0" speed="13.89" length="5.00" shape="495.05,1008.05 494.86,1006.69 494.28,1005.73 493.31,1005.14 491.95,1004.95"/>
    </edge>
    <edge id=":1/2_1" function="internal">
        <lane id=":1/2_1_0" index="0" speed="13.89" length="16.10" shape="495.05,1008.05 495.05,1003.27 495.05,1000.00 495.05,996.73 495.05,991.95"/>
    </edge>
    <edge id=":1/2_2" function="internal">
        <lane id=":1/2_2_0" index="0" speed="13.89" length="16.10" shape="498.35,1008.05 498.35,1003.27 498.35,1000.00 498.35,996.73 498.35,991.95"/>
    </edge>
    <edge id=":1/2_3" function="internal">
        <lane id=":1/2_3_0" index="0" speed="13.89" length="6.80" shape="498.35,1008.05 498.96,1003.81 500.25,1001.65"/>
    </edge>
    <edge id=":1/2_18" function="internal">
        <lane id=":1/2_18_0" index="0" speed="13.89" length="8.84" shape="500.25,1001.65 500.78,1000.78 503.81,998.96 508.05,998.35"/>
    </edge>
    <edge id=":1/2_4" function="internal">
        <lane id=":1/2_4_0" index="0" speed="13.89" length="2.41" shape="498.35,1008.05 499.18,1006.81 500.00,1006.40"/>
    </edge>
    <edge id=":1/2_19" function="internal">
        <lane id=":1/2_19_0" index="0" speed="13.89" length="2.41" shape="500.00,1006.40 500.82,1006.81 501.65,1008.05"/>
    </edge>
    <edge id=":1/2_5" function="internal">
        <lane id=":1/2_5_0" index="0" speed="13.89" length="5.00" shape="508.05,1004.95 506.69,1005.14 505.73,1005.73 505.14,1006.69 504.95,1008.05"/>
    </edge>
    <edge id=":1/2_6" function="internal">
        <lane id=":1/2_6_0" index="0" speed="13.89" length="16.10" shape="508.05,1001.65 503.27,1001.65 500.00,1001.65 496.73,1001.65 491.95,1001.65"/>
    </edge>
    <edge id=":1/2_7" function="internal">
        <lane id=":1/2_7_0" index="0" speed="13.89" length="3.13" shape="508.05,1001.65 504.95,1001.21"/>
    </edge>
    <edge id=":1/2_20" function="internal">
        <lane id=":1/2_20_0" index="0" speed="13.89" length="12.51" shape="504.95,1001.21 503.81,1001.04 500.78,999.22 498.96,996.19 498.35,991.95"/>
    </edge>
    <edge id=":1/2_8" function="internal">
        <lane id=":1/2_8_0" index="0" speed="13.89" length="2.41" shape="508.05,1001.65 506.81,1000.83 506.40,1000.00"/>
    </edge>
    <edge id=":1/2_21" function="internal">
        <lane id=":1/2_21_0" index="0" speed="13.89" length="2.41" shape="506.40,1000.00 506.81,999.17 508.05,998.35"/>
    </edge>
    <edge id=":1/2_9" function="internal">
        <lane id=":1/2_9_0" index="0" speed="13.89" length="5.00" shape="504.95,991.95 505.14,993.31 505.72,994.27 506.69,994.86 508.05,995.05"/>
    </edge>
    <edge id=":1/2_10" function="internal">
        <lane id=":1/2_10_0" index="0" speed="13.89" length="16.10" shape="504.95,991.95 504.95,996.73 504.95,1000.00 504.95,1003.27 504.95,1008.05"/>
    </edge>
    <edge id=":1/2_11" function="internal">
        <lane id=":1/2_11_0" index="0" speed="13.89" length="16.10" shape="501.65,991.95 501.65,996.73 501.65,1000.00 501.65,1003.27 501.65,1008.05"/>
    </edge>
    <edge id=":1/2_12" function="internal">
        <lane id=":1/2_12_0" index="0" speed="13.89" length="6.80" shape="501.65,991.95 501.04,996.19 499.75,998.35"/>
    </edge>
    <edge id=":1/2_22" function="internal">
        <lane id=":1/2_22_0" index="0" speed="13.89" length="8.84" shape="499.75,998.35 499.22,999.23 496.19,1001.04 491.95,1001.65"/>
    </edge>
    <edge id=":1/2_13" function="internal">
        <lane id=":1/2_13_0" index="0" speed="13.89" length="2.41" shape="501.65,991.95 500.82,993.19 500.00,993.60"/>
    </edge>
    <edge id=":1/2_23" function="internal">
        <lane id=":1/2_23_0" index="0" speed="13.89" length="2.41" shape="500.00,993.60 499.18,993.19 498.35,991.95"/>
    </edge>
    <edge id=":1/2_14" function="internal">
        <lane id=":1/2_14_0" index="0" speed="13.89" length="5.00" shape="491.95,995.05 493.31,994.86 494.27,994.27 494.86,993.31 495.05,991.95"/>
    </edge>
    <edge id=":1/2_15" function="internal">
        <lane id=":1/2_15_0" index="0" speed="13.89" length="16.10" shape="491.95,998.35 496.73,998.35 500.00,998.35 503.27,998.35 508.05,998.35"/>
    </edge>
    <edge id=":1/2_16" function="internal">
        <lane id=":1/2_16_0" index="0" speed="13.89" length="3.13" shape="491.95,998.35 495.05,998.79"/>
    </edge>
    <edge id=":1/2_24" function="internal">
        <lane id=":1/2_24_0" index="0" speed="13.89" length="12.51" shape="495.05,998.79 496.19,998.96 499.23,1000.78 501.04,1003.81 501.65,1008.05"/>
    </edge>
    <edge id=":1/2_17" function="internal">
        <lane id=":1/2_17_0" index="0" speed="13.89" length="2.41" shape="491.95,998.35 493.19,999.17 493.60,1000.00"/>
    </edge>
    <edge id=":1/2_25" function="internal">
        <lane id=":1/2_25_0" index="0" speed="13.89" length="2.41" shape="493.60,1000.00 493.19,1000.83 491.95,1001.65"/>
    </edge>
    <edge id=":1/3_0" function="internal">
        <lane id=":1/3_0_0" index="0" speed="13.89" length="5.00" shape="495.05,1508.05 494.86,1506.69 494.28,1505.72 493.31,1505.14 491.95,1504.95"/>
    </edge>
    <edge id=":1/3_1" function="internal">
        <lane id=":1/3_1_0" index="0" speed="13.89" length="16.10" shape="495.05,1508.05 495.05,1503.27 495.05,1500.00 495.05,1496.73 495.05,1491.95"/>
    </edge>
    <edge id=":1/3_2" function="internal">
        <lane id=":1/3_2_0" index="0" speed="13.89" length="16.10" shape="498.35,1508.05 498.35,1503.27 498.35,1500.00 498.35,1496.73 498.35,1491.95"/>
    </edge>
    <edge id=":1/3_3" function="internal">
        <lane id=":1/3_3_0" index="0" speed="13.89" length="6.80" shape="498.35,1508.05 498.96,1503.81 500.25,1501.65"/>
    </edge>
    <edge id=":1/3_18" function="internal">
        <lane id=":1/3_18_0" index="0" speed="13.89" length="8.84" shape="500.25,1501.65 500.78,1500.78 503.81,1498.96 508.05,1498.35"/>
    </edge>
    <edge id=":1/3_4" function="internal">
        <lane id=":1/3_4_0" index="0" speed="13.89" length="2.41" shape="498.35,1508.05 499.18,1506.81 500.00,1506.40"/>
    </edge>
    <edge id=":1/3_19" function="internal">
        <lane id=":1/3_19_0" index="0" speed="13.89" length="2.41" shape="500.00,1506.40 500.82,1506.81 501.65,1508.05"/>
    </edge>
    <edge id=":1/3_5" function="internal">
        <lane id=":1/3_5_0" index="0" speed="13.89" length="5.00" shape="508.05,1504.95 506.69,1505.14 505.73,1505.73 505.14,1506.69 504.95,1508.05"/>
    </edge>
    <edge id=":1/3_6" function="internal">
        <lane id=":1/3_6_0" index="0" speed="13.89" length="16.10" shape="508.05,1501.65 503.27,1501.65 500.00,1501.65 496.73,1501.65 491.95,1501.65"/>
    </edge>
    <edge id=":1/3_7" function="internal">
        <lane id=":1/3_7_0" index="0" speed="13.89" length="3.13" shape="508.05,1501.65 504.95,1501.21"/>
    </edge>
    <edge id=":1/3_20" function="internal">
        <lane id=":1/3_20_0" index="0" speed="13.89" length="12.51" shape="504.95,1501.21 503.81,1501.04 500.78,1499.23 498.96,1496.19 498.35,1491.95"/>
    </edge>
    <edge id=":1/3_8" function="internal">
        <lane id=":1/3_8_0" index="0" speed="13.89" length="2.41" shape="508.05,1501.65 506.81,1500.82 506.40,1500.00"/>
    </edge>
    <edge id=":1/3_21" function="internal">
        <lane id=":1/3_21_0" index="0" speed="13.89" length="2.41" shape="506.40,1500.00 506.81,1499.18 508.05,1498.35"/>
    </edge>
    <edge id=":1/3_9" function="internal">
        <lane id=":1/3_9_0" index="0" speed="13.89" length="5.00" shape="504.95,1491.95 505.14,1493.31 505.72,1494.28 506.69,1494.86 508.05,1495.05"/>
    </edge>
    <edge id=":1/3_10" function="internal">
        <lane id=":1/3_10_0" index="0" speed="13.89" length="16.10" shape="504.95,1491.95 504.95,1496.73 504.95,1500.00 504.95,1503.27 504.95,1508.05"/>
    </edge>
    <edge id=":1/3_11" function="internal">
        <lane id=":1/3_11_0" index="0" speed="13.89" length="16.10" shape="501.65,1491.95 501.65,1496.73 501.65,1500.00 501.65,1503.27 501.65,1508.05"/>
    </edge>
    <edge id=":1/3_12" function="internal">
        <lane id=":1/3_12_0" index="0" speed="13.89" length="6.80" shape="501.65,1491.95 501.04,1496.19 499.75,1498.35"/>
    </edge>
    <edge id=":1/3_22" function="internal">
        <lane id=":1/3_22_0" index="0" speed="13.89" length="8.84" shape="499.75,1498.35 499.22,1499.22 496.19,1501.04 491.95,1501.65"/>
    </edge>
    <edge id=":1/3_13" function="internal">
        <lane id=":1/3_13_0" index="0" speed="13.89" length="2.41" shape="501.65,1491.95 500.82,1493.19 500.00,1493.60"/>
    </edge>
    <edge id=":1/3_23" function="internal">
        <lane id=":1/3_23_0" index="0" speed="13.89" length="2.41" shape="500.00,1493.60 499.18,1493.19 498.35,1491.95"/>
    </edge>
    <edge id=":1/3_14" function="internal">
        <lane id=":1/3_14_0" index="0" speed="13.89" length="5.00" shape="491.95,1495.05 493.31,1494.86 494.27,1494.27 494.86,1493.31 495.05,1491.95"/>
    </edge>
    <edge id=":1/3_15" function="internal">
        <lane id=":1/3_15_0" index="0" speed="13.89" length="16.10" shape="491.95,1498.35 496.73,1498.35 500.00,1498.35 503.27,1498.35 508.05,1498.35"/>
    </edge>
    <edge id=":1/3_16" function="internal">
        <lane id=":1/3_16_0" index="0" speed="13.89" length="3.13" shape="491.95,1498.35 495.05,1498.79"/>
    </edge>
    <edge id=":1/3_24" function="internal">
        <lane id=":1/3_24_0" index="0" speed="13.89" length="12.51" shape="495.05,1498.79 496.19,1498.96 499.23,1500.77 501.04,1503.81 501.65,1508.05"/>
    </edge>
    <edge id=":1/3_17" function="internal">
        <lane id=":1/3_17_0" index="0" speed="13.89" length="2.41" shape="491.95,1498.35 493.19,1499.18 493.60,1500.00"/>
    </edge>
    <edge id=":1/3_25" function="internal">
        <lane id=":1/3_25_0" index="0" speed="13.89" length="2.41" shape="493.60,1500.00 493.19,1500.83 491.95,1501.65"/>
    </edge>
    <edge id=":1/4_0" function="internal">
        <lane id=":1/4_0_0" index="0" speed="13.89" length="5.00" shape="495.05,2008.05 494.86,2006.69 494.28,2005.72 493.31,2005.14 491.95,2004.95"/>
    </edge>
    <edge id=":1/4_1" function="internal">
        <lane id=":1/4_1_0" index="0" speed="13.89" length="16.10" shape="495.05,2008.05 495.05,2003.27 495.05,2000.00 495.05,1996.73 495.05,1991.95"/>
    </edge>
    <edge id=":1/4_2" function="internal">
        <lane id=":1/4_2_0" index="0" speed="13.89" length="16.10" shape="498.35,2008.05 498.35,2003.27 498.35,2000.00 498.35,1996.73 498.35,1991.95"/>
    </edge>
    <edge id=":1/4_3" function="internal">
        <lane id=":1/4_3_0" index="0" speed="13.89" length="6.80" shape="498.35,2008.05 498.96,2003.81 500.25,2001.65"/>
    </edge>
    <edge id=":1/4_18" function="internal">
        <lane id=":1/4_18_0" index="0" speed="13.89" length="8.84" shape="500.25,2001.65 500.78,2000.78 503.81,1998.96 508.05,1998.35"/>
    </edge>
    <edge id=":1/4_4" function="internal">
        <lane id=":1/4_4_0" index="0" speed="13.89" length="2.41" shape="498.35,2008.05 499.18,2006.81 500.00,2006.40"/>
    </edge>
    <edge id=":1/4_19" function="internal">
        <lane id=":1/4_19_0" index="0" speed="13.89" length="2.41" shape="500.00,2006.40 500.82,2006.81 501.65,2008.05"/>
    </edge>
    <edge id=":1/4_5" function="internal">
        <lane id=":1/4_5_0" index="0" speed="13.89" length="5.00" shape="508.05,2004.95 506.69,2005.14 505.72,2005.73 505.14,2006.69 504.95,2008.05"/>
    </edge>
    <edge id=":1/4_6" function="internal">
        <lane id=":1/4_6_0" index="0" speed="13.89" length="16.10" shape="508.05,2001.65 503.27,2001.65 500.00,2001.65 496.73,2001.65 491.95,2001.65"/>
    </edge>
    <edge id=":1/4_7" function="internal">
        <lane id=":1/4_7_0" index="0" speed="13.89" length="3.13" shape="508.05,2001.65 504.95,2001.21"/>
    </edge>
    <edge id=":1/4_20" function="internal">
        <lane id=":1/4_20_0" index="0" speed="13.89" length="12.51" shape="504.95,2001.21 503.81,2001.04 500.78,1999.23 498.96,1996.19 498.35,1991.95"/>
    </edge>
    <edge id=":1/4_8" function="internal">
        <lane id=":1/4_8_0" index="0" speed="13.89" length="2.41" shape="508.05,2001.65 506.81,2000.83 506.40,2000.00"/>
    </edge>
    <edge id=":1/4_21" function="internal">
        <lane id=":1/4_21_0" index="0" speed="13.89" length="2.41" shape="506.40,2000.00 506.81,1999.17 508.05,1998.35"/>
    </edge>
    <edge id=":1/4_9" function="internal">
        <lane id=":1/4_9_0" index="0" speed="13.89" length="5.00" shape="504.95,1991.95 505.14,1993.31 505.72,1994.28 506.69,1994.86 508.05,1995.05"/>
    </edge>
    <edge id=":1/4_10" function="internal">
        <lane id=":1/4_10_0" index="0" speed="13.89" length="16.10" shape="504.95,1991.95 504.95,1996.73 504.95,2000.00 504.95,2003.27 504.95,2008.05"/>
    </edge>
    <edge id=":1/4_11" function="internal">
        <lane id=":1/4_11_0" index="0" speed="13.89" length="16.10" shape="501.65,1991.95 501.65,1996.73 501.65,2000.00 501.65,2003.27 501.65,2008.05"/>
    </edge>
    <edge id=":1/4_12" function="internal">
        <lane id=":1/4_12_0" index="0" speed="13.89" length="6.80" shape="501.65,1991.95 501.04,1996.19 499.75,1998.35"/>
    </edge>
    <edge id=":1/4_22" function="internal">
        <lane id=":1/4_22_0" index="0" speed="13.89" length="8.84" shape="499.75,1998.35 499.22,1999.22 496.19,2001.04 491.95,2001.65"/>
    </edge>
    <edge id=":1/4_13" function="internal">
        <lane id=":1/4_13_0" index="0" speed="13.89" length="2.41" shape="501.65,1991.95 500.82,1993.19 500.00,1993.60"/>
    </edge>
    <edge id=":1/4_23" function="internal">
        <lane id=":1/4_23_0" index="0" speed="13.89" length="2.41" shape="500.00,1993.60 499.18,1993.19 498.35,1991.95"/>
    </edge>
    <edge id=":1/4_14" function="internal">
        <lane id=":1/4_14_0" index="0" speed="13.89" length="5.00" shape="491.95,1995.05 493.31,1994.86 494.27,1994.27 494.86,1993.31 495.05,1991.95"/>
    </edge>
    <edge id=":1/4_15" function="internal">
        <lane id=":1/4_15_0" index="0" speed="13.89" length="16.10" shape="491.95,1998.35 496.73,1998.35 500.00,1998.35 503.27,1998.35 508.05,1998.35"/>
    </edge>
    <edge id=":1/4_16" function="internal">
        <lane id=":1/4_16_0" index="0" speed="13.89" length="3.13" shape="491.95,1998.35 495.05,1998.79"/>
    </edge>
    <edge id=":1/4_24" function="internal">
        <lane id=":1/4_24_0" index="0" speed="13.89" length="12.51" shape="495.05,1998.79 496.19,1998.96 499.23,2000.77 501.04,2003.81 501.65,2008.05"/>
    </edge>
    <edge id=":1/4_17" function="internal">
        <lane id=":1/4_17_0" index="0" speed="13.89" length="2.41" shape="491.95,1998.35 493.19,1999.18 493.60,2000.00"/>
    </edge>
    <edge id=":1/4_25" function="internal">
        <lane id=":1/4_25_0" index="0" speed="13.89" length="2.41" shape="493.60,2000.00 493.19,2000.83 491.95,2001.65"/>
    </edge>
    <edge id=":1/5_0" function="internal">
        <lane id=":1/5_0_0" index="0" speed="13.89" length="5.00" shape="495.05,2508.05 494.86,2506.69 494.28,2505.72 493.31,2505.14 491.95,2504.95"/>
    </edge>
    <edge id=":1/5_1" function="internal">
        <lane id=":1/5_1_0" index="0" speed="13.89" length="16.10" shape="495.05,2508.05 495.05,2503.27 495.05,2500.00 495.05,2496.73 495.05,2491.95"/>
    </edge>
    <edge id=":1/5_2" function="internal">
        <lane id=":1/5_2_0" index="0" speed="13.89" length="16.10" shape="498.35,2508.05 498.35,2503.27 498.35,2500.00 498.35,2496.73 498.35,2491.95"/>
    </edge>
    <edge id=":1/5_3" function="internal">
        <lane id=":1/5_3_0" index="0" speed="13.89" length="6.80" shape="498.35,2508.05 498.96,2503.81 500.25,2501.65"/>
    </edge>
    <edge id=":1/5_18" function="internal">
        <lane id=":1/5_18_0" index="0" speed="13.89" length="8.84" shape="500.25,2501.65 500.78,2500.78 503.81,2498.96 508.05,2498.35"/>
    </edge>
    <edge id=":1/5_4" function="internal">
        <lane id=":1/5_4_0" index="0" speed="13.89" length="2.41" shape="498.35,2508.05 499.18,2506.81 500.00,2506.40"/>
    </edge>
    <edge id=":1/5_19" function="internal">
        <lane id=":1/5_19_0" index="0" speed="13.89" length="2.41" shape="500.00,2506.40 500.82,2506.81 501.65,2508.05"/>
    </edge>
    <edge id=":1/5_5" function="internal">
        <lane id=":1/5_5_0" index="0" speed="13.89" length="5.00" shape="508.05,2504.95 506.69,2505.14 505.73,2505.72 505.14,2506.69 504.95,2508.05"/>
    </edge>
    <edge id=":1/5_6" function="internal">
        <lane id=":1/5_6_0" index="0" speed="13.89" length="16.10" shape="508.05,2501.65 503.27,2501.65 500.00,2501.65 496.73,2501.65 491.95,2501.65"/>
    </edge>
    <edge id=":1/5_7" function="internal">
        <lane id=":1/5_7_0" index="0" speed="13.89" length="3.13" shape="508.05,2501.65 504.95,2501.21"/>
    </edge>
    <edge id=":1/5_20" function="internal">
        <lane id=":1/5_20_0" index="0" speed="13.89" length="12.51" shape="504.95,2501.21 503.81,2501.04 500.77,2499.23 498.96,2496.19 498.35,2491.95"/>
    </edge>
    <edge id=":1/5_8" function="internal">
        <lane id=":1/5_8_0" index="0" speed="13.89" length="2.41" shape="508.05,2501.65 506.81,2500.83 506.40,2500.00"/>
    </edge>
    <edge id=":1/5_21" function="internal">
        <lane id=":1/5_21_0" index="0" speed="13.89" length="2.41" shape="506.40,2500.00 506.81,2499.18 508.05,2498.35"/>
    </edge>
    <edge id=":1/5_9" function="internal">
        <lane id=":1/5_9_0" index="0" speed="13.89" length="5.00" shape="504.95,2491.95 505.14,2493.31 505.72,2494.28 506.69,2494.86 508.05,2495.05"/>
    </edge>
    <edge id=":1/5_10" function="internal">
        <lane id=":1/5_10_0" index="0" speed="13.89" length="16.10" shape="504.95,2491.95 504.95,2496.73 504.95,2500.00 504.95,2503.27 504.95,2508.05"/>
    </edge>
    <edge id=":1/5_11" function="internal">
        <lane id=":1/5_11_0" index="0" speed="13.89" length="16.10" shape="501.65,2491.95 501.65,2496.73 501.65,2500.00 501.65,2503.27 501.65,2508.05"/>
    </edge>
    <edge id=":1/5_12" function="internal">
        <lane id=":1/5_12_0" index="0" speed="13.89" length="6.80" shape="501.65,2491.95 501.04,2496.19 499.75,2498.35"/>
    </edge>
    <edge id=":1/5_22" function="internal">
        <lane id=":1/5_22_0" index="0" speed="13.89" length="8.84" shape="499.75,2498.35 499.22,2499.22 496.19,2501.04 491.95,2501.65"/>
    </edge>
    <edge id=":1/5_13" function="internal">
        <lane id=":1/5_13_0" index="0" speed="13.89" length="2.41" shape="501.65,2491.95 500.82,2493.19 500.00,2493.60"/>
    </edge>
    <edge id=":1/5_23" function="internal">
        <lane id=":1/5_23_0" index="0" speed="13.89" length="2.41" shape="500.00,2493.60 499.18,2493.19 498.35,2491.95"/>
    </edge>
    <edge id=":1/5_14" function="internal">
        <lane id=":1/5_14_0" index="0" speed="13.89" length="5.00" shape="491.95,2495.05 493.31,2494.86 494.27,2494.28 494.86,2493.31 495.05,2491.95"/>
    </edge>
    <edge id=":1/5_15" function="internal">
        <lane id=":1/5_15_0" index="0" speed="13.89" length="16.10" shape="491.95,2498.35 496.73,2498.35 500.00,2498.35 503.27,2498.35 508.05,2498.35"/>
    </edge>
    <edge id=":1/5_16" function="internal">
        <lane id=":1/5_16_0" index="0" speed="13.89" length="3.13" shape="491.95,2498.35 495.05,2498.79"/>
    </edge>
    <edge id=":1/5_24" function="internal">
        <lane id=":1/5_24_0" index="0" speed="13.89" length="12.51" shape="495.05,2498.79 496.19,2498.96 499.23,2500.77 501.04,2503.81 501.65,2508.05"/>
    </edge>
    <edge id=":1/5_17" function="internal">
        <lane id=":1/5_17_0" index="0" speed="13.89" length="2.41" shape="491.95,2498.35 493.19,2499.17 493.60,2500.00"/>
    </edge>
    <edge id=":1/5_25" function="internal">
        <lane id=":1/5_25_0" index="0" speed="13.89" length="2.41" shape="493.60,2500.00 493.19,2500.82 491.95,2501.65"/>
    </edge>
    <edge id=":1/6_0" function="internal">
        <lane id=":1/6_0_0" index="0" speed="13.89" length="4.82" shape="501.65,3000.00 500.82,3001.24 500.00,3001.65 499.18,3001.24 498.35,3000.00"/>
    </edge>
    <edge id=":10/0_0" function="internal">
        <lane id=":10/0_0_0" index="0" speed="13.89" length="4.82" shape="4998.35,0.00 4999.17,-1.24 5000.00,-1.65 5000.82,-1.24 5001.65,0.00"/>
    </edge>
    <edge id=":10/1_0" function="internal">
        <lane id=":10/1_0_0" index="0" speed="13.89" length="5.00" shape="4995.05,508.05 4994.86,506.69 4994.28,505.72 4993.31,505.14 4991.95,504.95"/>
    </edge>
    <edge id=":10/1_1" function="internal">
        <lane id=":10/1_1_0" index="0" speed="13.89" length="16.10" shape="4995.05,508.05 4995.05,503.27 4995.05,500.00 4995.05,496.73 4995.05,491.95"/>
    </edge>
    <edge id=":10/1_2" function="internal">
        <lane id=":10/1_2_0" index="0" speed="13.89" length="16.10" shape="4998.35,508.05 4998.35,503.27 4998.35,500.00 4998.35,496.73 4998.35,491.95"/>
    </edge>
    <edge id=":10/1_3" function="internal">
        <lane id=":10/1_3_0" index="0" speed="13.89" length="6.80" shape="4998.35,508.05 4998.96,503.81 5000.25,501.65"/>
    </edge>
    <edge id=":10/1_18" function="internal">
        <lane id=":10/1_18_0" index="0" speed="13.89" length="8.84" shape="5000.25,501.65 5000.78,500.77 5003.81,498.96 5008.05,498.35"/>
    </edge>
    <edge id=":10/1_4" function="internal">
        <lane id=":10/1_4_0" index="0" speed="13.89" length="2.41" shape="4998.35,508.05 4999.17,506.81 5000.00,506.40"/>
    </edge>
    <edge id=":10/1_19" function="internal">
        <lane id=":10/1_19_0" index="0" speed="13.89" length="2.41" shape="5000.00,506.40 5000.82,506.81 5001.65,508.05"/>
    </edge>
    <edge id=":10/1_5" function="internal">
        <lane id=":10/1_5_0" index="0" speed="13.89" length="5.00" shape="5008.05,504.95 5006.69,505.14 5005.73,505.72 5005.14,506.69 5004.95,508.05"/>
    </edge>
    <edge id=":10/1_6" function="internal">
        <lane id=":10/1_6_0" index="0" speed="13.89" length="16.10" shape="5008.05,501.65 5003.27,501.65 5000.00,501.65 4996.73,501.65 4991.95,501.65"/>
    </edge>
    <edge id=":10/1_7" function="internal">
        <lane id=":10/1_7_0" index="0" speed="13.89" length="3.13" shape="5008.05,501.65 5004.95,501.21"/>
    </edge>
    <edge id=":10/1_20" function="internal">
        <lane id=":10/1_20_0" index="0" speed="13.89" length="12.51" shape="5004.95,501.21 5003.81,501.04 5000.77,499.22 4998.96,496.19 4998.35,491.95"/>
    </edge>
    <edge id=":10/1_8" function="internal">
        <lane id=":10/1_8_0" index="0" speed="13.89" length="2.41" shape="5008.05,501.65 5006.81,500.82 5006.40,500.00"/>
    </edge>
    <edge id=":10/1_21" function="internal">
        <lane id=":10/1_21_0" index="0" speed="13.89" length="2.41" shape="5006.40,500.00 5006.81,499.18 5008.05,498.35"/>
    </edge>
    <edge id=":10/1_9" function="internal">
        <lane id=":10/1_9_0" index="0" speed="13.89" length="5.00" shape="5004.95,491.95 5005.14,493.31 5005.72,494.27 5006.69,494.86 5008.05,495.05"/>
    </edge>
    <edge id=":10/1_10" function="internal">