<?xml version="1.0" encoding="UTF-8"?>

<!-- generated on 2025-09-26T12:27:46.691506+01:00 by Eclipse SUMO netconvert v1_24_0+1030-7e971aa37fb
<netconvertConfiguration xmlns:xsi="http://www.w3.org/2001/XMLSchema-instance" xsi:noNamespaceSchemaLocation="http://sumo.dlr.de/xsd/netconvertConfiguration.xsd">

    <input>
        <node-files value="/tmp/tmpw43deq8j"/>
        <edge-files value="/tmp/tmpuegqhmw1"/>
        <connection-files value="/tmp/tmpxsvo41p_"/>
    </input>

    <output>
        <output-file value="net.net.xml"/>
    </output>

    <report>
        <verbose value="true"/>
    </report>

</netconvertConfiguration>
-->

<net version="1.20" junctionCornerDetail="5" limitTurnSpeed="5.50" xmlns:xsi="http://www.w3.org/2001/XMLSchema-instance" xsi:noNamespaceSchemaLocation="http://sumo.dlr.de/xsd/net_file.xsd">

    <location netOffset="0.00,0.00" convBoundary="0.00,0.00,5500.00,3000.00" origBoundary="0.00,0.00,5500.00,3000.00" projParameter="!"/>

    <edge id=":0/1_0" function="internal">
        <lane id=":0/1_0_0" index="0" speed="3.65" length="4.67" shape="0.00,501.60 -1.20,500.80 -1.60,500.00 -1.20,499.20 0.00,498.40"/>
    </edge>
    <edge id=":0/2_0" function="internal">
        <lane id=":0/2_0_0" index="0" speed="3.65" length="4.67" shape="0.00,1001.60 -1.20,1000.80 -1.60,1000.00 -1.20,999.20 0.00,998.40"/>
    </edge>
    <edge id=":0/3_0" function="internal">
        <lane id=":0/3_0_0" index="0" speed="3.65" length="4.67" shape="0.00,1501.60 -1.20,1500.80 -1.60,1500.00 -1.20,1499.20 0.00,1498.40"/>
    </edge>
    <edge id=":0/4_0" function="internal">
        <lane id=":0/4_0_0" index="0" speed="3.65" length="4.67" shape="0.00,2001.60 -1.20,2000.80 -1.60,2000.00 -1.20,1999.20 0.00,1998.40"/>
    </edge>
    <edge id=":0/5_0" function="internal">
        <lane id=":0/5_0_0" index="0" speed="3.65" length="4.67" shape="0.00,2501.60 -1.20,2500.80 -1.60,2500.00 -1.20,2499.20 0.00,2498.40"/>
    </edge>
    <edge id=":1/0_0" function="internal">
        <lane id=":1/0_0_0" index="0" speed="3.65" length="4.67" shape="498.40,0.00 499.20,-1.20 500.00,-1.60 500.80,-1.20 501.60,0.00"/>
    </edge>
    <edge id=":1/1_0" function="internal">
        <lane id=":1/1_0_0" index="0" speed="6.51" length="9.03" shape="495.20,510.40 494.85,507.95 493.80,506.20 492.05,505.15 489.60,504.80"/>
    </edge>
    <edge id=":1/1_1" function="internal">
        <lane id=":1/1_1_0" index="0" speed="13.89" length="20.80" shape="495.20,510.40 495.20,489.60"/>
        <lane id=":1/1_1_1" index="1" speed="13.89" length="20.80" shape="498.40,510.40 498.40,489.60"/>
    </edge>
    <edge id=":1/1_3" function="internal">
        <lane id=":1/1_3_0" index="0" speed="9.26" length="5.01" shape="498.40,510.40 499.11,505.44"/>
    </edge>
    <edge id=":1/1_4" function="internal">
        <lane id=":1/1_4_0" index="0" speed="3.65" length="1.44" shape="498.40,510.40 499.20,509.20"/>
    </edge>
    <edge id=":1/1_20" function="internal">
        <lane id=":1/1_20_0" index="0" speed="9.26" length="14.34" shape="499.11,505.44 499.15,505.15 501.40,501.40 505.15,499.15 510.40,498.40"/>
    </edge>
    <edge id=":1/1_21" function="internal">
        <lane id=":1/1_21_0" index="0" speed="3.65" length="3.23" shape="499.20,509.20 500.00,508.80 500.80,509.20 501.60,510.40"/>
    </edge>
    <edge id=":1/1_5" function="internal">
        <lane id=":1/1_5_0" index="0" speed="6.51" length="9.03" shape="510.40,504.80 507.95,505.15 506.20,506.20 505.15,507.95 504.80,510.40"/>
    </edge>
    <edge id=":1/1_6" function="internal">
        <lane id=":1/1_6_0" index="0" speed="13.89" length="20.80" shape="510.40,504.80 489.60,504.80"/>
        <lane id=":1/1_6_1" index="1" speed="13.89" length="20.80" shape="510.40,501.60 489.60,501.60"/>
    </edge>
    <edge id=":1/1_8" function="internal">
        <lane id=":1/1_8_0" index="0" speed="9.26" length="5.01" shape="510.40,501.60 505.44,500.89"/>
    </edge>
    <edge id=":1/1_9" function="internal">
        <lane id=":1/1_9_0" index="0" speed="3.65" length="1.44" shape="510.40,501.60 509.20,500.80"/>
    </edge>
    <edge id=":1/1_22" function="internal">
        <lane id=":1/1_22_0" index="0" speed="9.26" length="14.34" shape="505.44,500.89 505.15,500.85 501.40,498.60 499.15,494.85 498.40,489.60"/>
    </edge>
    <edge id=":1/1_23" function="internal">
        <lane id=":1/1_23_0" index="0" speed="3.65" length="3.23" shape="509.20,500.80 508.80,500.00 509.20,499.20 510.40,498.40"/>
    </edge>
    <edge id=":1/1_10" function="internal">
        <lane id=":1/1_10_0" index="0" speed="6.51" length="9.03" shape="504.80,489.60 505.15,492.05 506.20,493.80 507.95,494.85 510.40,495.20"/>
    </edge>
    <edge id=":1/1_11" function="internal">
        <lane id=":1/1_11_0" index="0" speed="13.89" length="20.80" shape="504.80,489.60 504.80,510.40"/>
        <lane id=":1/1_11_1" index="1" speed="13.89" length="20.80" shape="501.60,489.60 501.60,510.40"/>
    </edge>
    <edge id=":1/1_13" function="internal">
        <lane id=":1/1_13_0" index="0" speed="9.26" length="5.01" shape="501.60,489.60 500.89,494.56"/>
    </edge>
    <edge id=":1/1_14" function="internal">
        <lane id=":1/1_14_0" index="0" speed="3.65" length="1.44" shape="501.60,489.60 500.80,490.80"/>
    </edge>
    <edge id=":1/1_24" function="internal">
        <lane id=":1/1_24_0" index="0" speed="9.26" length="14.34" shape="500.89,494.56 500.85,494.85 498.60,498.60 494.85,500.85 489.60,501.60"/>
    </edge>
    <edge id=":1/1_25" function="internal">
        <lane id=":1/1_25_0" index="0" speed="3.65" length="3.23" shape="500.80,490.80 500.00,491.20 499.20,490.80 498.40,489.60"/>
    </edge>
    <edge id=":1/1_15" function="internal">
        <lane id=":1/1_15_0" index="0" speed="6.51" length="9.03" shape="489.60,495.20 492.05,494.85 493.80,493.80 494.85,492.05 495.20,489.60"/>
    </edge>
    <edge id=":1/1_16" function="internal">
        <lane id=":1/1_16_0" index="0" speed="13.89" length="20.80" shape="489.60,495.20 510.40,495.20"/>
        <lane id=":1/1_16_1" index="1" speed="13.89" length="20.80" shape="489.60,498.40 510.40,498.40"/>
    </edge>
    <edge id=":1/1_18" function="internal">
        <lane id=":1/1_18_0" index="0" speed="9.26" length="5.01" shape="489.60,498.40 494.56,499.11"/>
    </edge>
    <edge id=":1/1_19" function="internal">
        <lane id=":1/1_19_0" index="0" speed="3.65" length="1.44" shape="489.60,498.40 490.80,499.20"/>
    </edge>
    <edge id=":1/1_26" function="internal">
        <lane id=":1/1_26_0" index="0" speed="9.26" length="14.34" shape="494.56,499.11 494.85,499.15 498.60,501.40 500.85,505.15 501.60,510.40"/>
    </edge>
    <edge id=":1/1_27" function="internal">
        <lane id=":1/1_27_0" index="0" speed="3.65" length="3.23" shape="490.80,499.20 491.20,500.00 490.80,500.80 489.60,501.60"/>
    </edge>
    <edge id=":1/2_0" function="internal">
        <lane id=":1/2_0_0" index="0" speed="6.51" length="9.03" shape="495.20,1010.40 494.85,1007.95 493.80,1006.20 492.05,1005.15 489.60,1004.80"/>
    </edge>
    <edge id=":1/2_1" function="internal">
        <lane id=":1/2_1_0" index="0" speed="13.89" length="20.80" shape="495.20,1010.40 495.20,989.60"/>
        <lane id=":1/2_1_1" index="1" speed="13.89" length="20.80" shape="498.40,1010.40 498.40,989.60"/>
    </edge>
    <edge id=":1/2_3" function="internal">
        <lane id=":1/2_3_0" index="0" speed="9.26" length="5.01" shape="498.40,1010.40 499.11,1005.44"/>
    </edge>
    <edge id=":1/2_4" function="internal">
        <lane id=":1/2_4_0" index="0" speed="3.65" length="1.44" shape="498.40,1010.40 499.20,1009.20"/>
    </edge>
    <edge id=":1/2_20" function="internal">
        <lane id=":1/2_20_0" index="0" speed="9.26" length="14.34" shape="499.11,1005.44 499.15,1005.15 501.40,1001.40 505.15,999.15 510.40,998.40"/>
    </edge>
    <edge id=":1/2_21" function="internal">
        <lane id=":1/2_21_0" index="0" speed="3.65" length="3.23" shape="499.20,1009.20 500.00,1008.80 500.80,1009.20 501.60,1010.40"/>
    </edge>
    <edge id=":1/2_5" function="internal">
        <lane id=":1/2_5_0" index="0" speed="6.51" length="9.03" shape="510.40,1004.80 507.95,1005.15 506.20,1006.20 505.15,1007.95 504.80,1010.40"/>
    </edge>
    <edge id=":1/2_6" function="internal">
        <lane id=":1/2_6_0" index="0" speed="13.89" length="20.80" shape="510.40,1004.80 489.60,1004.80"/>
        <lane id=":1/2_6_1" index="1" speed="13.89" length="20.80" shape="510.40,1001.60 489.60,1001.60"/>
    </edge>
    <edge id=":1/2_8" function="internal">
        <lane id=":1/2_8_0" index="0" speed="9.26" length="5.01" shape="510.40,1001.60 505.44,1000.89"/>
    </edge>
    <edge id=":1/2_9" function="internal">
        <lane id=":1/2_9_0" index="0" speed="3.65" length="1.44" shape="510.40,1001.60 509.20,1000.80"/>
    </edge>
    <edge id=":1/2_22" function="internal">
        <lane id=":1/2_22_0" index="0" speed="9.26" length="14.34" shape="505.44,1000.89 505.15,1000.85 501.40,998.60 499.15,994.85 498.40,989.60"/>
    </edge>
    <edge id=":1/2_23" function="internal">
        <lane id=":1/2_23_0" index="0" speed="3.65" length="3.23" shape="509.20,1000.80 508.80,1000.00 509.20,999.20 510.40,998.40"/>
    </edge>
    <edge id=":1/2_10" function="internal">
        <lane id=":1/2_10_0" index="0" speed="6.51" length="9.03" shape="504.80,989.60 505.15,992.05 506.20,993.80 507.95,994.85 510.40,995.20"/>
    </edge>
    <edge id=":1/2_11" function="internal">
        <lane id=":1/2_11_0" index="0" speed="13.89" length="20.80" shape="504.80,989.60 504.80,1010.40"/>
        <lane id=":1/2_11_1" index="1" speed="13.89" length="20.80" shape="501.60,989.60 501.60,1010.40"/>
    </edge>
    <edge id=":1/2_13" function="internal">
        <lane id=":1/2_13_0" index="0" speed="9.26" length="5.01" shape="501.60,989.60 500.89,994.56"/>
    </edge>
    <edge id=":1/2_14" function="internal">
        <lane id=":1/2_14_0" index="0" speed="3.65" length="1.44" shape="501.60,989.60 500.80,990.80"/>
    </edge>
    <edge id=":1/2_24" function="internal">
        <lane id=":1/2_24_0" index="0" speed="9.26" length="14.34" shape="500.89,994.56 500.85,994.85 498.60,998.60 494.85,1000.85 489.60,1001.60"/>
    </edge>
    <edge id=":1/2_25" function="internal">
        <lane id=":1/2_25_0" index="0" speed="3.65" length="3.23" shape="500.80,990.80 500.00,991.20 499.20,990.80 498.40,989.60"/>
    </edge>
    <edge id=":1/2_15" function="internal">
        <lane id=":1/2_15_0" index="0" speed="6.51" length="9.03" shape="489.60,995.20 492.05,994.85 493.80,993.80 494.85,992.05 495.20,989.60"/>
    </edge>
    <edge id=":1/2_16" function="internal">
        <lane id=":1/2_16_0" index="0" speed="13.89" length="20.80" shape="489.60,995.20 510.40,995.20"/>
        <lane id=":1/2_16_1" index="1" speed="13.89" length="20.80" shape="489.60,998.40 510.40,998.40"/>
    </edge>
    <edge id=":1/2_18" function="internal">
        <lane id=":1/2_18_0" index="0" speed="9.26" length="5.01" shape="489.60,998.40 494.56,999.11"/>
    </edge>
    <edge id=":1/2_19" function="internal">
        <lane id=":1/2_19_0" index="0" speed="3.65" length="1.44" shape="489.60,998.40 490.80,999.20"/>
    </edge>
    <edge id=":1/2_26" function="internal">
        <lane id=":1/2_26_0" index="0" speed="9.26" length="14.34" shape="494.56,999.11 494.85,999.15 498.60,1001.40 500.85,1005.15 501.60,1010.40"/>
    </edge>
    <edge id=":1/2_27" function="internal">
        <lane id=":1/2_27_0" index="0" speed="3.65" length="3.23" shape="490.80,999.20 491.20,1000.00 490.80,1000.80 489.60,1001.60"/>
    </edge>
    <edge id=":1/3_0" function="internal">
        <lane id=":1/3_0_0" index="0" speed="6.51" length="9.03" shape="495.20,1510.40 494.85,1507.95 493.80,1506.20 492.05,1505.15 489.60,1504.80"/>
    </edge>
    <edge id=":1/3_1" function="internal">
        <lane id=":1/3_1_0" index="0" speed="13.89" length="20.80" shape="495.20,1510.40 495.20,1489.60"/>
        <lane id=":1/3_1_1" index="1" speed="13.89" length="20.80" shape="498.40,1510.40 498.40,1489.60"/>
    </edge>
    <edge id=":1/3_3" function="internal">
        <lane id=":1/3_3_0" index="0" speed="9.26" length="5.01" shape="498.40,1510.40 499.11,1505.44"/>
    </edge>
    <edge id=":1/3_4" function="internal">
        <lane id=":1/3_4_0" index="0" speed="3.65" length="1.44" shape="498.40,1510.40 499.20,1509.20"/>
    </edge>
    <edge id=":1/3_20" function="internal">
        <lane id=":1/3_20_0" index="0" speed="9.26" length="14.34" shape="499.11,1505.44 499.15,1505.15 501.40,1501.40 505.15,1499.15 510.40,1498.40"/>
    </edge>
    <edge id=":1/3_21" function="internal">
        <lane id=":1/3_21_0" index="0" speed="3.65" length="3.23" shape="499.20,1509.20 500.00,1508.80 500.80,1509.20 501.60,1510.40"/>
    </edge>
    <edge id=":1/3_5" function="internal">
        <lane id=":1/3_5_0" index="0" speed="6.51" length="9.03" shape="510.40,1504.80 507.95,1505.15 506.20,1506.20 505.15,1507.95 504.80,1510.40"/>
    </edge>
    <edge id=":1/3_6" function="internal">
        <lane id=":1/3_6_0" index="0" speed="13.89" length="20.80" shape="510.40,1504.80 489.60,1504.80"/>
        <lane id=":1/3_6_1" index="1" speed="13.89" length="20.80" shape="510.40,1501.60 489.60,1501.60"/>
    </edge>
    <edge id=":1/3_8" function="internal">
        <lane id=":1/3_8_0" index="0" speed="9.26" length="5.01" shape="510.40,1501.60 505.44,1500.89"/>
    </edge>
    <edge id=":1/3_9" function="internal">
        <lane id=":1/3_9_0" index="0" speed="3.65" length="1.44" shape="510.40,1501.60 509.20,1500.80"/>
    </edge>
    <edge id=":1/3_22" function="internal">
        <lane id=":1/3_22_0" index="0" speed="9.26" length="14.34" shape="505.44,1500.89 505.15,1500.85 501.40,1498.60 499.15,1494.85 498.40,1489.60"/>
    </edge>
    <edge id=":1/3_23" function="internal">
        <lane id=":1/3_23_0" index="0" speed="3.65" length="3.23" shape="509.20,1500.80 508.80,1500.00 509.20,1499.20 510.40,1498.40"/>
    </edge>
    <edge id=":1/3_10" function="internal">
        <lane id=":1/3_10_0" index="0" speed="6.51" length="9.03" shape="504.80,1489.60 505.15,1492.05 506.20,1493.80 507.95,1494.85 510.40,1495.20"/>
    </edge>
    <edge id=":1/3_11" function="internal">
        <lane id=":1/3_11_0" index="0" speed="13.89" length="20.80" shape="504.80,1489.60 504.80,1510.40"/>
        <lane id=":1/3_11_1" index="1" speed="13.89" length="20.80" shape="501.60,1489.60 501.60,1510.40"/>
    </edge>
    <edge id=":1/3_13" function="internal">
        <lane id=":1/3_13_0" index="0" speed="9.26" length="5.01" shape="501.60,1489.60 500.89,1494.56"/>
    </edge>
    <edge id=":1/3_14" function="internal">
        <lane id=":1/3_14_0" index="0" speed="3.65" length="1.44" shape="501.60,1489.60 500.80,1490.80"/>
    </edge>
    <edge id=":1/3_24" function="internal">
        <lane id=":1/3_24_0" index="0" speed="9.26" length="14.34" shape="500.89,1494.56 500.85,1494.85 498.60,1498.60 494.85,1500.85 489.60,1501.60"/>
    </edge>
    <edge id=":1/3_25" function="internal">
        <lane id=":1/3_25_0" index="0" speed="3.65" length="3.23" shape="500.80,1490.80 500.00,1491.20 499.20,1490.80 498.40,1489.60"/>
    </edge>
    <edge id=":1/3_15" function="internal">
        <lane id=":1/3_15_0" index="0" speed="6.51" length="9.03" shape="489.60,1495.20 492.05,1494.85 493.80,1493.80 494.85,1492.05 495.20,1489.60"/>
    </edge>
    <edge id=":1/3_16" function="internal">
        <lane id=":1/3_16_0" index="0" speed="13.89" length="20.80" shape="489.60,1495.20 510.40,1495.20"/>
        <lane id=":1/3_16_1" index="1" speed="13.89" length="20.80" shape="489.60,1498.40 510.40,1498.40"/>
    </edge>
    <edge id=":1/3_18" function="internal">
        <lane id=":1/3_18_0" index="0" speed="9.26" length="5.01" shape="489.60,1498.40 494.56,1499.11"/>
    </edge>
    <edge id=":1/3_19" function="internal">
        <lane id=":1/3_19_0" index="0" speed="3.65" length="1.44" shape="489.60,1498.40 490.80,1499.20"/>
    </edge>
    <edge id=":1/3_26" function="internal">
        <lane id=":1/3_26_0" index="0" speed="9.26" length="14.34" shape="494.56,1499.11 494.85,1499.15 498.60,1501.40 500.85,1505.15 501.60,1510.40"/>
    </edge>
    <edge id=":1/3_27" function="internal">
        <lane id=":1/3_27_0" index="0" speed="3.65" length="3.23" shape="490.80,1499.20 491.20,1500.00 490.80,1500.80 489.60,1501.60"/>
    </edge>
    <edge id=":1/4_0" function="internal">
        <lane id=":1/4_0_0" index="0" speed="6.51" length="9.03" shape="495.20,2010.40 494.85,2007.95 493.80,2006.20 492.05,2005.15 489.60,2004.80"/>
    </edge>
    <edge id=":1/4_1" function="internal">
        <lane id=":1/4_1_0" index="0" speed="13.89" length="20.80" shape="495.20,2010.40 495.20,1989.60"/>
        <lane id=":1/4_1_1" index="1" speed="13.89" length="20.80" shape="498.40,2010.40 498.40,1989.60"/>
    </edge>
    <edge id=":1/4_3" function="internal">
        <lane id=":1/4_3_0" index="0" speed="9.26" length="5.01" shape="498.40,2010.40 499.11,2005.44"/>
    </edge>
    <edge id=":1/4_4" function="internal">
        <lane id=":1/4_4_0" index="0" speed="3.65" length="1.44" shape="498.40,2010.40 499.20,2009.20"/>
    </edge>
    <edge id=":1/4_20" function="internal">
        <lane id=":1/4_20_0" index="0" speed="9.26" length="14.34" shape="499.11,2005.44 499.15,2005.15 501.40,2001.40 505.15,1999.15 510.40,1998.40"/>
    </edge>
    <edge id=":1/4_21" function="internal">
        <lane id=":1/4_21_0" index="0" speed="3.65" length="3.23" shape="499.20,2009.20 500.00,2008.80 500.80,2009.20 501.60,2010.40"/>
    </edge>
    <edge id=":1/4_5" function="internal">
        <lane id=":1/4_5_0" index="0" speed="6.51" length="9.03" shape="510.40,2004.80 507.95,2005.15 506.20,2006.20 505.15,2007.95 504.80,2010.40"/>
    </edge>
    <edge id=":1/4_6" function="internal">
        <lane id=":1/4_6_0" index="0" speed="13.89" length="20.80" shape="510.40,2004.80 489.60,2004.80"/>
        <lane id=":1/4_6_1" index="1" speed="13.89" length="20.80" shape="510.40,2001.60 489.60,2001.60"/>
    </edge>
    <edge id=":1/4_8" function="internal">
        <lane id=":1/4_8_0" index="0" speed="9.26" length="5.01" shape="510.40,2001.60 505.44,2000.89"/>
    </edge>
    <edge id=":1/4_9" function="internal">
        <lane id=":1/4_9_0" index="0" speed="3.65" length="1.44" shape="510.40,2001.60 509.20,2000.80"/>
    </edge>
    <edge id=":1/4_22" function="internal">
        <lane id=":1/4_22_0" index="0" speed="9.26" length="14.34" shape="505.44,2000.89 505.15,2000.85 501.40,1998.60 499.15,1994.85 498.40,1989.60"/>
    </edge>
    <edge id=":1/4_23" function="internal">
        <lane id=":1/4_23_0" index="0" speed="3.65" length="3.23" shape="509.20,2000.80 508.80,2000.00 509.20,1999.20 510.40,1998.40"/>
    </edge>
    <edge id=":1/4_10" function="internal">
        <lane id=":1/4_10_0" index="0" speed="6.51" length="9.03" shape="504.80,1989.60 505.15,1992.05 506.20,1993.80 507.95,1994.85 510.40,1995.20"/>
    </edge>
    <edge id=":1/4_11" function="internal">
        <lane id=":1/4_11_0" index="0" speed="13.89" length="20.80" shape="504.80,1989.60 504.80,2010.40"/>
        <lane id=":1/4_11_1" index="1" speed="13.89" length="20.80" shape="501.60,1989.60 501.60,2010.40"/>
    </edge>
    <edge id=":1/4_13" function="internal">
        <lane id=":1/4_13_0" index="0" speed="9.26" length="5.01" shape="501.60,1989.60 500.89,1994.56"/>
    </edge>
    <edge id=":1/4_14" function="internal">
        <lane id=":1/4_14_0" index="0" speed="3.65" length="1.44" shape="501.60,1989.60 500.80,1990.80"/>
    </edge>
    <edge id=":1/4_24" function="internal">
        <lane id=":1/4_24_0" index="0" speed="9.26" length="14.34" shape="500.89,1994.56 500.85,1994.85 498.60,1998.60 494.85,2000.85 489.60,2001.60"/>
    </edge>
    <edge id=":1/4_25" function="internal">
        <lane id=":1/4_25_0" index="0" speed="3.65" length="3.23" shape="500.80,1990.80 500.00,1991.20 499.20,1990.80 498.40,1989.60"/>
    </edge>
    <edge id=":1/4_15" function="internal">
        <lane id=":1/4_15_0" index="0" speed="6.51" length="9.03" shape="489.60,1995.20 492.05,1994.85 493.80,1993.80 494.85,1992.05 495.20,1989.60"/>
    </edge>
    <edge id=":1/4_16" function="internal">
        <lane id=":1/4_16_0" index="0" speed="13.89" length="20.80" shape="489.60,1995.20 510.40,1995.20"/>
        <lane id=":1/4_16_1" index="1" speed="13.89" length="20.80" shape="489.60,1998.40 510.40,1998.40"/>
    </edge>
    <edge id=":1/4_18" function="internal">
        <lane id=":1/4_18_0" index="0" speed="9.26" length="5.01" shape="489.60,1998.40 494.56,1999.11"/>
    </edge>
    <edge id=":1/4_19" function="internal">
        <lane id=":1/4_19_0" index="0" speed="3.65" length="1.44" shape="489.60,1998.40 490.80,1999.20"/>
    </edge>
    <edge id=":1/4_26" function="internal">
        <lane id=":1/4_26_0" index="0" speed="9.26" length="14.34" shape="494.56,1999.11 494.85,1999.15 498.60,2001.40 500.85,2005.15 501.60,2010.40"/>
    </edge>
    <edge id=":1/4_27" function="internal">
        <lane id=":1/4_27_0" index="0" speed="3.65" length="3.23" shape="490.80,1999.20 491.20,2000.00 490.80,2000.80 489.60,2001.60"/>
    </edge>
    <edge id=":1/5_0" function="internal">
        <lane id=":1/5_0_0" index="0" speed="6.51" length="9.03" shape="495.20,2510.40 494.85,2507.95 493.80,2506.20 492.05,2505.15 489.60,2504.80"/>
    </edge>
    <edge id=":1/5_1" function="internal">
        <lane id=":1/5_1_0" index="0" speed="13.89" length="20.80" shape="495.20,2510.40 495.20,2489.60"/>
        <lane id=":1/5_1_1" index="1" speed="13.89" length="20.80" shape="498.40,2510.40 498.40,2489.60"/>
    </edge>
    <edge id=":1/5_3" function="internal">
        <lane id=":1/5_3_0" index="0" speed="9.26" length="5.01" shape="498.40,2510.40 499.11,2505.44"/>
    </edge>
    <edge id=":1/5_4" function="internal">
        <lane id=":1/5_4_0" index="0" speed="3.65" length="1.44" shape="498.40,2510.40 499.20,2509.20"/>
    </edge>
    <edge id=":1/5_20" function="internal">
        <lane id=":1/5_20_0" index="0" speed="9.26" length="14.34" shape="499.11,2505.44 499.15,2505.15 501.40,2501.40 505.15,2499.15 510.40,2498.40"/>
    </edge>
    <edge id=":1/5_21" function="internal">
        <lane id=":1/5_21_0" index="0" speed="3.65" length="3.23" shape="499.20,2509.20 500.00,2508.80 500.80,2509.20 501.60,2510.40"/>
    </edge>
    <edge id=":1/5_5" function="internal">
        <lane id=":1/5_5_0" index="0" speed="6.51" length="9.03" shape="510.40,2504.80 507.95,2505.15 506.20,2506.20 505.15,2507.95 504.80,2510.40"/>
    </edge>
    <edge id=":1/5_6" function="internal">
        <lane id=":1/5_6_0" index="0" speed="13.89" length="20.80" shape="510.40,2504.80 489.60,2504.80"/>
        <lane id=":1/5_6_1" index="1" speed="13.89" length="20.80" shape="510.40,2501.60 489.60,2501.60"/>
    </edge>
    <edge id=":1/5_8" function="internal">
        <lane id=":1/5_8_0" index="0" speed="9.26" length="5.01" shape="510.40,2501.60 505.44,2500.89"/>
    </edge>
    <edge id=":1/5_9" function="internal">
        <lane id=":1/5_9_0" index="0" speed="3.65" length="1.44" shape="510.40,2501.60 509.20,2500.80"/>
    </edge>
    <edge id=":1/5_22" function="internal">
        <lane id=":1/5_22_0" index="0" speed="9.26" length="14.34" shape="505.44,2500.89 505.15,2500.85 501.40,2498.60 499.15,2494.85 498.40,2489.60"/>
    </edge>
    <edge id=":1/5_23" function="internal">
        <lane id=":1/5_23_0" index="0" speed="3.65" length="3.23" shape="509.20,2500.80 508.80,2500.00 509.20,2499.20 510.40,2498.40"/>
    </edge>
    <edge id=":1/5_10" function="internal">
        <lane id=":1/5_10_0" index="0" speed="6.51" length="9.03" shape="504.80,2489.60 505.15,2492.05 506.20,2493.80 507.95,2494.85 510.40,2495.20"/>
    </edge>
    <edge id=":1/5_11" function="internal">
        <lane id=":1/5_11_0" index="0" speed="13.89" length="20.80" shape="504.80,2489.60 504.80,2510.40"/>
        <lane id=":1/5_11_1" index="1" speed="13.89" length="20.80" shape="501.60,2489.60 501.60,2510.40"/>
    </edge>
    <edge id=":1/5_13" function="internal">
        <lane id=":1/5_13_0" index="0" speed="9.26" length="5.01" shape="501.60,2489.60 500.89,2494.56"/>
    </edge>
    <edge id=":1/5_14" function="internal">
        <lane id=":1/5_14_0" index="0" speed="3.65" length="1.44" shape="501.60,2489.60 500.80,2490.80"/>
    </edge>
    <edge id=":1/5_24" function="internal">
        <lane id=":1/5_24_0" index="0" speed="9.26" length="14.34" shape="500.89,2494.56 500.85,2494.85 498.60,2498.60 494.85,2500.85 489.60,2501.60"/>
    </edge>
    <edge id=":1/5_25" function="internal">
        <lane id=":1/5_25_0" index="0" speed="3.65" length="3.23" shape="500.80,2490.80 500.00,2491.20 499.20,2490.80 498.40,2489.60"/>
    </edge>
    <edge id=":1/5_15" function="internal">
        <lane id=":1/5_15_0" index="0" speed="6.51" length="9.03" shape="489.60,2495.20 492.05,2494.85 493.80,2493.80 494.85,2492.05 495.20,2489.60"/>
    </edge>
    <edge id=":1/5_16" function="internal">
        <lane id=":1/5_16_0" index="0" speed="13.89" length="20.80" shape="489.60,2495.20 510.40,2495.20"/>
        <lane id=":1/5_16_1" index="1" speed="13.89" length="20.80" shape="489.60,2498.40 510.40,2498.40"/>
    </edge>
    <edge id=":1/5_18" function="internal">
        <lane id=":1/5_18_0" index="0" speed="9.26" length="5.01" shape="489.60,2498.40 494.56,2499.11"/>
    </edge>
    <edge id=":1/5_19" function="internal">
        <lane id=":1/5_19_0" index="0" speed="3.65" length="1.44" shape="489.60,2498.40 490.80,2499.20"/>
    </edge>
    <edge id=":1/5_26" function="internal">
        <lane id=":1/5_26_0" index="0" speed="9.26" length="14.34" shape="494.56,2499.11 494.85,2499.15 498.60,2501.40 500.85,2505.15 501.60,2510.40"/>
    </edge>
    <edge id=":1/5_27" function="internal">
        <lane id=":1/5_27_0" index="0" speed="3.65" length="3.23" shape="490.80,2499.20 491.20,2500.00 490.80,2500.80 489.60,2501.60"/>
    </edge>
    <edge id=":1/6_0" function="internal">
        <lane id=":1/6_0_0" index="0" speed="3.65" length="4.67" shape="501.60,3000.00 500.80,3001.20 500.00,3001.60 499.20,3001.20 498.40,3000.00"/>
    </edge>
    <edge id=":10/0_0" function="internal">
        <lane id=":10/0_0_0" index="0" speed="3.65" length="4.67" shape="4998.40,0.00 4999.20,-1.20 5000.00,-1.60 5000.80,-1.20 5001.60,0.00"/>
    </edge>
    <edge id=":10/1_0" function="internal">
        <lane id=":10/1_0_0" index="0" speed="6.51" length="9.03" shape="4995.20,510.40 4994.85,507.95 4993.80,506.20 4992.05,505.15 4989.60,504.80"/>
    </edge>
    <edge id=":10/1_1" function="internal">
        <lane id=":10/1_1_0" index="0" speed="13.89" length="20.80" shape="4995.20,510.40 4995.20,489.60"/>
        <lane id=":10/1_1_1" index="1" speed="13.89" length="20.80" shape="4998.40,510.40 4998.40,489.60"/>
    </edge>
    <edge id=":10/1_3" function="internal">
        <lane id=":10/1_3_0" index="0" speed="9.26" length="5.01" shape="4998.40,510.40 4999.11,505.44"/>
    </edge>
    <edge id=":10/1_4" function="internal">
        <lane id=":10/1_4_0" index="0" speed="3.65" length="1.44" shape="4998.40,510.40 4999.20,509.20"/>
    </edge>
    <edge id=":10/1_20" function="internal">
        <lane id=":10/1_20_0" index="0" speed="9.26" length="14.34" shape="4999.11,505.44 4999.15,505.15 5001.40,501.40 5005.15,499.15 5010.40,498.40"/>
    </edge>
    <edge id=":10/1_21" function="internal">
        <lane id=":10/1_21_0" index="0" speed="3.65" length="3.23" shape="4999.20,509.20 5000.00,508.80 5000.80,509.20 5001.60,510.40"/>
    </edge>
    <edge id=":10/1_5" function="internal">
        <lane id=":10/1_5_0" index="0" speed="6.51" length="9.03" shape="5010.40,504.80 5007.95,505.15 5006.20,506.20 5005.15,507.95 5004.80,510.40"/>
    </edge>
    <edge id=":10/1_6" function="internal">
        <lane id=":10/1_6_0" index="0" speed="13.89" length="20.80" shape="5010.40,504.80 4989.60,504.80"/>
        <lane id=":10/1_6_1" index="1" speed="13.89" length="20.80" shape="5010.40,501.60 4989.60,501.60"/>
    </edge>
    <edge id=":10/1_8" function="internal">
        <lane id=":10/1_8_0" index="0" speed="9.26" length="5.01" shape="5010.40,501.60 5005.44,500.89"/>
    </edge>
    <edge id=":10/1_9" function="internal">
        <lane id=":10/1_9_0" index="0" speed="3.65" length="1.44" shape="5010.40,501.60 5009.20,500.80"/>
    </edge>
    <edge id=":10/1_22" function="internal">
        <lane id=":10/1_22_0" index="0" speed="9.26" length="14.34" shape="5005.44,500.89 5005.15,500.85 5001.40,498.60 4999.15,494.85 4998.40,489.60"/>
    </edge>
    <edge id=":10/1_23" function="internal">
        <lane id=":10/1_23_0" index="0" speed="3.65" length="3.23" shape="5009.20,500.80 5008.80,500.00 5009.20,499.20 5010.40,498.40"/>
    </edge>
    <edge id=":10/1_10" function="internal">
        <lane id=":10/1_10_0" index="0" speed="6.51" length="9.03" shape="5004.80,489.60 5005.15,492.05 5006.20,493.80 5007.95,494.85 5010.40,495.20"/>
    </edge>
    <edge id=":10/1_11" function="internal">
        <lane id=":10/1_11_0" index="0" speed="13.89" length="20.80" shape="5004.80,489.60 5004.80,510.40"/>
        <lane id=":10/1_11_1" index="1" speed="13.89" length="20.80" shape="5001.60,489.60 5001.60,510.40"/>
    </edge>
    <edge id=":10/1_13" function="internal">
        <lane id=":10/1_13_0" index="0" speed="9.26" length="5.01" shape="5001.60,489.60 5000.89,494.56"/>
    </edge>
    <edge id=":10/1_14" function="internal">
        <lane id=":10/1_14_0" index="0" speed="3.65" length="1.44" shape="5001.60,489.60 5000.80,490.80"/>
    </edge>
    <edge id=":10/1_24" function="internal">
        <lane id=":10/1_24_0" index="0" speed="9.26" length="14.34" shape="5000.89,494.56 5000.85,494.85 4998.60,498.60 4994.85,500.85 4989.60,501.60"/>
    </edge>
    <edge id=":10/1_25" function="internal">