<add>
    <vType id="eBase" minGap="2.50" maxSpeed="29.06" color="white" accel="1.0" decel="1.0" sigma="0.0" emissionClass="Energy/unknown">
        <param key="has.battery.device" value="true"/>
        <param key="airDragCoefficient" value="0.35"/>
        <param key="constantPowerIntake" value="100"/>
        <param key="frontSurfaceArea" value="0.6"/>
        <param key="internalMomentOfInertia" value="0.01"/>
        <param key="maximumBatteryCapacity" value="64000"/>
        <param key="maximumPower" value="150000"/>
        <param key="propulsionEfficiency" value=".98"/>
        <param key="radialDragCoefficient" value="0.1"/>
        <param key="recuperationEfficiency" value=".96"/>
        <param key="rollDragCoefficient" value="0.01"/>
        <param key="vehicleMass" value="1830"/>
    </vType>
    <vType id="soulEV65" refId="eBase">
        <param key="frontSurfaceArea" value="2.6"/>
    </vType>
</add>
