<?xml version="1.0" encoding="UTF-8"?>

<!-- generated on 2023-07-25 11:03:33 by Eclipse SUMO netedit Version v1_18_0+0511-d8469bdc8ac
-->

<routes xmlns:xsi="http://www.w3.org/2001/XMLSchema-instance" xsi:noNamespaceSchemaLocation="http://sumo.dlr.de/xsd/routes_file.xsd">
    <!-- VTypes -->
    <vType id="custom_vType" length="20.00" width="5.00" height="12.00" color="cyan"/>
    <!-- Routes -->
    <route id="r_0" edges="Edge0 Edge1 Edge2"/>
    <!-- Vehicles, persons and containers (sorted by depart) -->
    <vehicle id="v_0" type="custom_vType" depart="0.00" route="r_0"/>
</routes>
