<?xml version="1.0" encoding="UTF-8"?>

<!-- generated on 2022-10-26 15:09:55 by Eclipse SUMO netedit Version v1_14_1+1973-a077d430a61
-->

<routes xmlns:xsi="http://www.w3.org/2001/XMLSchema-instance" xsi:noNamespaceSchemaLocation="http://sumo.dlr.de/xsd/routes_file.xsd">
    <!-- VTypes -->
    <vType id="custom_vType" length="20.00" vClass="bus" width="5.00" height="12.00" color="12,13,14"/>
    <!-- Routes -->
    <route id="r_0" edges="gneE2 gneE4 gneE5"/>
    <!-- Vehicles, persons and containers (sorted by depart) -->
    <vehicle id="v_0" type="custom_vType" depart="0.00" route="r_0"/>
</routes>
