<?xml version="1.0"?>

<!-- generated on 06/15/11 10:25:59 by SUMO sumo Version dev-SVN-r10615
<?xml version="1.0" encoding="iso-8859-1"?>

<configuration xmlns:xsi="http://www.w3.org/2001/XMLSchema-instance" xsi:noNamespaceSchemaLocation="http://sumo.sf.net/xsd/sumoConfiguration.xsd">

    <input>
        <net-file value="net.net.xml"/>
        <route-files value="input_routes.rou.xml"/>
        <additional-files value="input_additional.add.xml"/>
    </input>

    <time>
        <begin value="0"/>
        <end value="10000"/>
    </time>

    <report>
        <no-duration-log value="true"/>
        <no-step-log value="true"/>
    </report>

</configuration>
-->

<netstats>
    <interval begin="0.00" end="60.00" id="dump_60">
        <edge id="1/1to2/1" sampledSeconds="630.92" traveltime="59.98" density="10.73" occupancy="7.51" waitingTime="0.00" speed="16.34" departed="21" arrived="0" entered="0" left="2" laneChangedFrom="0" laneChangedTo="0"/>
        <edge id="2/1to3/1" sampledSeconds="3.77" traveltime="51.08" density="0.06" occupancy="0.04" waitingTime="0.00" speed="19.18" departed="0" arrived="0" entered="2" left="0" laneChangedFrom="0" laneChangedTo="0"/>
    </interval>
    <interval begin="60.00" end="120.00" id="dump_60">
        <edge id="1/1to2/1" sampledSeconds="1176.64" traveltime="56.19" density="20.01" occupancy="14.01" waitingTime="0.00" speed="17.44" departed="21" arrived="0" entered="0" left="20" laneChangedFrom="0" laneChangedTo="0"/>
        <edge id="2/1to3/1" sampledSeconds="692.12" traveltime="51.69" density="11.77" occupancy="8.24" waitingTime="0.00" speed="18.96" departed="0" arrived="0" entered="20" left="4" laneChangedFrom="0" laneChangedTo="0"/>
        <edge id="3/1to4/1" sampledSeconds="27.38" traveltime="51.81" density="0.47" occupancy="0.33" waitingTime="0.00" speed="18.91" departed="0" arrived="0" entered="4" left="0" laneChangedFrom="0" laneChangedTo="0"/>
    </interval>
    <interval begin="120.00" end="180.00" id="dump_60">
        <edge id="1/1to2/1" sampledSeconds="1150.77" traveltime="56.15" density="19.57" occupancy="13.70" waitingTime="0.00" speed="17.45" departed="21" arrived="0" entered="0" left="22" laneChangedFrom="0" laneChangedTo="0"/>
        <edge id="2/1to3/1" sampledSeconds="1093.99" traveltime="51.70" density="18.61" occupancy="13.02" waitingTime="0.00" speed="18.96" departed="0" arrived="0" entered="22" left="21" laneChangedFrom="0" laneChangedTo="0"/>
        <edge id="3/1to4/1" sampledSeconds="812.77" traveltime="51.72" density="13.82" occupancy="9.68" waitingTime="0.00" speed="18.95" departed="0" arrived="0" entered="21" left="7" laneChangedFrom="0" laneChangedTo="0"/>
        <edge id="4/1to5/1" sampledSeconds="75.50" traveltime="51.67" density="1.28" occupancy="0.90" waitingTime="0.00" speed="18.97" departed="0" arrived="0" entered="7" left="0" laneChangedFrom="0" laneChangedTo="0"/>
    </interval>
    <interval begin="180.00" end="240.00" id="dump_60">
        <edge id="1/1to2/1" sampledSeconds="1161.18" traveltime="56.14" density="19.75" occupancy="13.82" waitingTime="0.00" speed="17.46" departed="21" arrived="0" entered="0" left="20" laneChangedFrom="0" laneChangedTo="0"/>
        <edge id="2/1to3/1" sampledSeconds="1062.54" traveltime="51.74" density="18.07" occupancy="12.65" waitingTime="0.00" speed="18.94" departed="0" arrived="0" entered="20" left="21" laneChangedFrom="0" laneChangedTo="0"/>
        <edge id="3/1to4/1" sampledSeconds="1099.07" traveltime="51.74" density="18.69" occupancy="13.08" waitingTime="0.00" speed="18.94" departed="0" arrived="0" entered="21" left="21" laneChangedFrom="0" laneChangedTo="0"/>
        <edge id="4/1to5/1" sampledSeconds="912.24" traveltime="51.78" density="15.52" occupancy="10.86" waitingTime="0.00" speed="18.92" departed="0" arrived="0" entered="21" left="10" laneChangedFrom="0" laneChangedTo="0"/>
        <edge id="5/1to6/1" sampledSeconds="144.49" traveltime="51.87" density="2.46" occupancy="1.72" waitingTime="0.00" speed="18.89" departed="0" arrived="0" entered="10" left="0" laneChangedFrom="0" laneChangedTo="0"/>
    </interval>
    <interval begin="240.00" end="300.00" id="dump_60">
        <edge id="1/1to2/1" sampledSeconds="1162.14" traveltime="56.24" density="19.77" occupancy="13.84" waitingTime="0.00" speed="17.42" departed="20" arrived="0" entered="0" left="21" laneChangedFrom="0" laneChangedTo="0"/>
        <edge id="2/1to3/1" sampledSeconds="1081.38" traveltime="51.76" density="18.39" occupancy="12.87" waitingTime="0.00" speed="18.93" departed="0" arrived="0" entered="21" left="21" laneChangedFrom="0" laneChangedTo="0"/>
        <edge id="3/1to4/1" sampledSeconds="1058.78" traveltime="51.64" density="18.01" occupancy="12.61" waitingTime="0.00" speed="18.98" departed="0" arrived="0" entered="21" left="21" laneChangedFrom="0" laneChangedTo="0"/>
        <edge id="4/1to5/1" sampledSeconds="1096.86" traveltime="51.73" density="18.66" occupancy="13.06" waitingTime="0.00" speed="18.94" departed="0" arrived="0" entered="21" left="21" laneChangedFrom="0" laneChangedTo="0"/>
        <edge id="5/1to6/1" sampledSeconds="988.44" traveltime="51.67" density="16.81" occupancy="11.77" waitingTime="0.00" speed="18.96" departed="0" arrived="0" entered="21" left="13" laneChangedFrom="0" laneChangedTo="0"/>
        <edge id="6/1to7/1" sampledSeconds="238.90" traveltime="51.71" density="4.06" occupancy="2.84" waitingTime="0.00" speed="18.95" departed="0" arrived="0" entered="13" left="0" laneChangedFrom="0" laneChangedTo="0"/>
    </interval>
    <interval begin="300.00" end="360.00" id="dump_60">
        <edge id="1/1to2/1" sampledSeconds="1155.68" traveltime="56.11" density="19.66" occupancy="13.76" waitingTime="0.00" speed="17.46" departed="21" arrived="0" entered="0" left="20" laneChangedFrom="0" laneChangedTo="0"/>
        <edge id="2/1to3/1" sampledSeconds="1072.58" traveltime="51.72" density="18.24" occupancy="12.77" waitingTime="0.00" speed="18.95" departed="0" arrived="0" entered="20" left="21" laneChangedFrom="0" laneChangedTo="0"/>
        <edge id="3/1to4/1" sampledSeconds="1080.84" traveltime="51.72" density="18.38" occupancy="12.87" waitingTime="0.00" speed="18.95" departed="0" arrived="0" entered="21" left="21" laneChangedFrom="0" laneChangedTo="0"/>
        <edge id="4/1to5/1" sampledSeconds="1061.96" traveltime="51.72" density="18.06" occupancy="12.64" waitingTime="0.00" speed="18.95" departed="0" arrived="0" entered="21" left="21" laneChangedFrom="0" laneChangedTo="0"/>
        <edge id="5/1to6/1" sampledSeconds="1091.46" traveltime="51.73" density="18.56" occupancy="12.99" waitingTime="0.00" speed="18.95" departed="0" arrived="0" entered="21" left="21" laneChangedFrom="0" laneChangedTo="0"/>
        <edge id="6/1to7/1" sampledSeconds="1044.36" traveltime="51.72" density="17.76" occupancy="12.43" waitingTime="0.00" speed="18.95" departed="0" arrived="0" entered="21" left="15" laneChangedFrom="0" laneChangedTo="0"/>
        <edge id="7/1to8/1" sampledSeconds="355.07" traveltime="51.72" density="6.04" occupancy="4.23" waitingTime="0.00" speed="18.95" departed="0" arrived="0" entered="15" left="0" laneChangedFrom="0" laneChangedTo="0"/>
    </interval>
    <interval begin="360.00" end="420.00" id="dump_60">
        <edge id="1/1to2/1" sampledSeconds="1129.58" traveltime="56.30" density="19.21" occupancy="13.45" waitingTime="0.00" speed="17.41" departed="20" arrived="0" entered="0" left="21" laneChangedFrom="0" laneChangedTo="0"/>
        <edge id="2/1to3/1" sampledSeconds="1074.41" traveltime="51.67" density="18.27" occupancy="12.79" waitingTime="0.00" speed="18.96" departed="0" arrived="0" entered="21" left="21" laneChangedFrom="0" laneChangedTo="0"/>
        <edge id="3/1to4/1" sampledSeconds="1069.27" traveltime="51.73" density="18.19" occupancy="12.73" waitingTime="0.00" speed="18.94" departed="0" arrived="0" entered="21" left="21" laneChangedFrom="0" laneChangedTo="0"/>
        <edge id="4/1to5/1" sampledSeconds="1079.57" traveltime="51.69" density="18.36" occupancy="12.85" waitingTime="0.00" speed="18.96" departed="0" arrived="0" entered="21" left="21" laneChangedFrom="0" laneChangedTo="0"/>
        <edge id="5/1to6/1" sampledSeconds="1068.23" traveltime="51.70" density="18.17" occupancy="12.72" waitingTime="0.00" speed="18.96" departed="0" arrived="0" entered="21" left="21" laneChangedFrom="0" laneChangedTo="0"/>
        <edge id="6/1to7/1" sampledSeconds="1082.52" traveltime="51.72" density="18.41" occupancy="12.89" waitingTime="0.00" speed="18.95" departed="0" arrived="0" entered="21" left="22" laneChangedFrom="0" laneChangedTo="0"/>
        <edge id="7/1to8/1" sampledSeconds="1077.91" traveltime="51.72" density="18.33" occupancy="12.83" waitingTime="0.00" speed="18.95" departed="0" arrived="0" entered="22" left="19" laneChangedFrom="0" laneChangedTo="0"/>
        <edge id="8/1to9/1" sampledSeconds="494.13" traveltime="51.69" density="8.40" occupancy="5.88" waitingTime="0.00" speed="18.96" departed="0" arrived="0" entered="19" left="1" laneChangedFrom="0" laneChangedTo="0"/>
    </interval>
    <interval begin="420.00" end="480.00" id="dump_60">
        <edge id="1/1to2/1" sampledSeconds="1125.64" traveltime="56.03" density="19.14" occupancy="13.40" waitingTime="0.00" speed="17.49" departed="20" arrived="0" entered="0" left="21" laneChangedFrom="0" laneChangedTo="0"/>
        <edge id="10/1to1/1" sampledSeconds="15.80" traveltime="51.82" density="0.27" occupancy="0.19" waitingTime="0.00" speed="18.91" departed="0" arrived="0" entered="3" left="0" laneChangedFrom="0" laneChangedTo="0"/>
        <edge id="2/1to3/1" sampledSeconds="1042.11" traveltime="51.63" density="17.72" occupancy="12.41" waitingTime="0.00" speed="18.98" departed="0" arrived="0" entered="21" left="20" laneChangedFrom="0" laneChangedTo="0"/>
        <edge id="3/1to4/1" sampledSeconds="1073.33" traveltime="51.66" density="18.26" occupancy="12.78" waitingTime="0.00" speed="18.97" departed="0" arrived="0" entered="20" left="21" laneChangedFrom="0" laneChangedTo="0"/>
        <edge id="4/1to5/1" sampledSeconds="1070.49" traveltime="51.71" density="18.21" occupancy="12.74" waitingTime="0.00" speed="18.95" departed="0" arrived="0" entered="21" left="21" laneChangedFrom="0" laneChangedTo="0"/>
        <edge id="5/1to6/1" sampledSeconds="1079.24" traveltime="51.66" density="18.36" occupancy="12.85" waitingTime="0.00" speed="18.97" departed="0" arrived="0" entered="21" left="21" laneChangedFrom="0" laneChangedTo="0"/>
        <edge id="6/1to7/1" sampledSeconds="1072.52" traveltime="51.70" density="18.24" occupancy="12.77" waitingTime="0.00" speed="18.95" departed="0" arrived="0" entered="21" left="21" laneChangedFrom="0" laneChangedTo="0"/>
        <edge id="7/1to8/1" sampledSeconds="1075.48" traveltime="51.70" density="18.29" occupancy="12.80" waitingTime="0.00" speed="18.95" departed="0" arrived="0" entered="20" left="21" laneChangedFrom="0" laneChangedTo="0"/>
        <edge id="8/1to9/1" sampledSeconds="1089.80" traveltime="51.75" density="18.54" occupancy="12.97" waitingTime="0.00" speed="18.94" departed="0" arrived="0" entered="21" left="20" laneChangedFrom="0" laneChangedTo="0"/>
        <edge id="9/1to10/1" sampledSeconds="638.46" traveltime="51.78" density="10.86" occupancy="7.60" waitingTime="0.00" speed="18.93" departed="0" arrived="0" entered="21" left="3" laneChangedFrom="0" laneChangedTo="0"/>
    </interval>
    <interval begin="480.00" end="540.00" id="dump_60">
        <edge id="1/1to2/1" sampledSeconds="1110.52" traveltime="54.91" density="18.89" occupancy="13.22" waitingTime="0.00" speed="17.85" departed="14" arrived="0" entered="6" left="20" laneChangedFrom="0" laneChangedTo="0"/>
        <edge id="10/1to1/1" sampledSeconds="766.99" traveltime="51.64" density="13.04" occupancy="9.13" waitingTime="0.00" speed="18.98" departed="0" arrived="0" entered="21" left="6" laneChangedFrom="0" laneChangedTo="0"/>
        <edge id="2/1to3/1" sampledSeconds="1043.45" traveltime="51.71" density="17.75" occupancy="12.42" waitingTime="0.00" speed="18.95" departed="0" arrived="0" entered="20" left="20" laneChangedFrom="0" laneChangedTo="0"/>
        <edge id="3/1to4/1" sampledSeconds="1044.68" traveltime="51.68" density="17.77" occupancy="12.44" waitingTime="0.00" speed="18.96" departed="0" arrived="0" entered="20" left="20" laneChangedFrom="0" laneChangedTo="0"/>
        <edge id="4/1to5/1" sampledSeconds="1067.25" traveltime="51.74" density="18.15" occupancy="12.71" waitingTime="0.00" speed="18.94" departed="0" arrived="0" entered="20" left="21" laneChangedFrom="0" laneChangedTo="0"/>
        <edge id="5/1to6/1" sampledSeconds="1068.59" traveltime="51.71" density="18.17" occupancy="12.72" waitingTime="0.00" speed="18.95" departed="0" arrived="0" entered="21" left="20" laneChangedFrom="0" laneChangedTo="0"/>
        <edge id="6/1to7/1" sampledSeconds="1079.17" traveltime="51.68" density="18.35" occupancy="12.85" waitingTime="0.00" speed="18.96" departed="0" arrived="0" entered="20" left="20" laneChangedFrom="0" laneChangedTo="0"/>
        <edge id="7/1to8/1" sampledSeconds="1078.05" traveltime="51.71" density="18.34" occupancy="12.83" waitingTime="0.00" speed="18.95" departed="0" arrived="0" entered="21" left="21" laneChangedFrom="0" laneChangedTo="0"/>
        <edge id="8/1to9/1" sampledSeconds="1068.98" traveltime="51.74" density="18.18" occupancy="12.73" waitingTime="0.00" speed="18.94" departed="0" arrived="0" entered="21" left="22" laneChangedFrom="0" laneChangedTo="0"/>
        <edge id="9/1to10/1" sampledSeconds="1095.88" traveltime="51.74" density="18.64" occupancy="13.05" waitingTime="0.00" speed="18.94" departed="0" arrived="0" entered="21" left="21" laneChangedFrom="0" laneChangedTo="0"/>
    </interval>
    <interval begin="540.00" end="600.00" id="dump_60">
        <edge id="1/1to2/1" sampledSeconds="1106.83" traveltime="51.69" density="18.82" occupancy="13.18" waitingTime="0.00" speed="18.96" departed="0" arrived="0" entered="21" left="21" laneChangedFrom="0" laneChangedTo="0"/>
        <edge id="10/1to1/1" sampledSeconds="1096.86" traveltime="51.70" density="18.66" occupancy="13.06" waitingTime="0.00" speed="18.95" departed="0" arrived="0" entered="21" left="21" laneChangedFrom="0" laneChangedTo="0"/>
        <edge id="2/1to3/1" sampledSeconds="1062.99" traveltime="51.68" density="18.08" occupancy="12.66" waitingTime="0.00" speed="18.96" departed="0" arrived="0" entered="21" left="20" laneChangedFrom="0" laneChangedTo="0"/>
        <edge id="3/1to4/1" sampledSeconds="1038.52" traveltime="51.75" density="17.66" occupancy="12.36" waitingTime="0.00" speed="18.94" departed="0" arrived="0" entered="20" left="20" laneChangedFrom="0" laneChangedTo="0"/>
        <edge id="4/1to5/1" sampledSeconds="1049.19" traveltime="51.70" density="17.84" occupancy="12.49" waitingTime="0.00" speed="18.95" departed="0" arrived="0" entered="20" left="19" laneChangedFrom="0" laneChangedTo="0"/>
        <edge id="5/1to6/1" sampledSeconds="1060.17" traveltime="51.73" density="18.03" occupancy="12.62" waitingTime="0.00" speed="18.94" departed="0" arrived="0" entered="19" left="21" laneChangedFrom="0" laneChangedTo="0"/>
        <edge id="6/1to7/1" sampledSeconds="1069.93" traveltime="51.70" density="18.20" occupancy="12.74" waitingTime="0.00" speed="18.96" departed="0" arrived="0" entered="21" left="21" laneChangedFrom="0" laneChangedTo="0"/>
        <edge id="7/1to8/1" sampledSeconds="1078.38" traveltime="51.71" density="18.34" occupancy="12.84" waitingTime="0.00" speed="18.95" departed="0" arrived="0" entered="21" left="20" laneChangedFrom="0" laneChangedTo="0"/>
        <edge id="8/1to9/1" sampledSeconds="1078.41" traveltime="51.70" density="18.34" occupancy="12.84" waitingTime="0.00" speed="18.96" departed="0" arrived="0" entered="20" left="20" laneChangedFrom="0" laneChangedTo="0"/>
        <edge id="9/1to10/1" sampledSeconds="1066.01" traveltime="51.74" density="18.13" occupancy="12.69" waitingTime="0.00" speed="18.94" departed="0" arrived="0" entered="21" left="21" laneChangedFrom="0" laneChangedTo="0"/>
    </interval>
    <interval begin="600.00" end="660.00" id="dump_60">
        <edge id="1/1to2/1" sampledSeconds="1101.72" traveltime="51.96" density="18.74" occupancy="13.12" waitingTime="0.00" speed="18.86" departed="1" arrived="0" entered="21" left="21" laneChangedFrom="0" laneChangedTo="0"/>
        <edge id="10/1to1/1" sampledSeconds="1065.18" traveltime="51.78" density="18.12" occupancy="12.68" waitingTime="0.00" speed="18.93" departed="0" arrived="0" entered="21" left="21" laneChangedFrom="0" laneChangedTo="0"/>
        <edge id="2/1to3/1" sampledSeconds="1103.41" traveltime="51.79" density="18.77" occupancy="13.14" waitingTime="0.00" speed="18.92" departed="0" arrived="0" entered="21" left="22" laneChangedFrom="0" laneChangedTo="0"/>
        <edge id="3/1to4/1" sampledSeconds="1076.74" traveltime="51.65" density="18.31" occupancy="12.82" waitingTime="0.00" speed="18.97" departed="0" arrived="0" entered="22" left="20" laneChangedFrom="0" laneChangedTo="0"/>
        <edge id="4/1to5/1" sampledSeconds="1037.46" traveltime="51.73" density="17.65" occupancy="12.35" waitingTime="0.00" speed="18.94" departed="0" arrived="0" entered="20" left="21" laneChangedFrom="0" laneChangedTo="0"/>
        <edge id="5/1to6/1" sampledSeconds="1048.13" traveltime="51.69" density="17.83" occupancy="12.48" waitingTime="0.00" speed="18.96" departed="0" arrived="0" entered="21" left="20" laneChangedFrom="0" laneChangedTo="0"/>
        <edge id="6/1to7/1" sampledSeconds="1056.60" traveltime="51.74" density="17.97" occupancy="12.58" waitingTime="0.00" speed="18.94" departed="0" arrived="0" entered="20" left="21" laneChangedFrom="0" laneChangedTo="0"/>
        <edge id="7/1to8/1" sampledSeconds="1068.96" traveltime="51.76" density="18.18" occupancy="12.73" waitingTime="0.00" speed="18.93" departed="0" arrived="0" entered="21" left="21" laneChangedFrom="0" laneChangedTo="0"/>
        <edge id="8/1to9/1" sampledSeconds="1077.91" traveltime="51.70" density="18.33" occupancy="12.83" waitingTime="0.00" speed="18.95" departed="0" arrived="0" entered="21" left="21" laneChangedFrom="0" laneChangedTo="0"/>
        <edge id="9/1to10/1" sampledSeconds="1077.36" traveltime="51.65" density="18.32" occupancy="12.83" waitingTime="0.00" speed="18.97" departed="0" arrived="0" entered="21" left="21" laneChangedFrom="0" laneChangedTo="0"/>
    </interval>
    <interval begin="660.00" end="720.00" id="dump_60">
        <edge id="1/1to2/1" sampledSeconds="1172.90" traveltime="52.37" density="19.95" occupancy="13.96" waitingTime="0.00" speed="18.71" departed="2" arrived="0" entered="21" left="22" laneChangedFrom="0" laneChangedTo="0"/>
        <edge id="10/1to1/1" sampledSeconds="1083.88" traveltime="51.93" density="18.43" occupancy="12.90" waitingTime="0.00" speed="18.87" departed="0" arrived="0" entered="21" left="21" laneChangedFrom="0" laneChangedTo="0"/>
        <edge id="2/1to3/1" sampledSeconds="1099.11" traveltime="51.69" density="18.69" occupancy="13.09" waitingTime="0.00" speed="18.96" departed="0" arrived="0" entered="22" left="21" laneChangedFrom="0" laneChangedTo="0"/>
        <edge id="3/1to4/1" sampledSeconds="1099.06" traveltime="51.76" density="18.69" occupancy="13.08" waitingTime="0.00" speed="18.93" departed="0" arrived="0" entered="21" left="22" laneChangedFrom="0" laneChangedTo="0"/>
        <edge id="4/1to5/1" sampledSeconds="1088.10" traveltime="51.67" density="18.51" occupancy="12.95" waitingTime="0.00" speed="18.96" departed="0" arrived="0" entered="22" left="20" laneChangedFrom="0" laneChangedTo="0"/>
        <edge id="5/1to6/1" sampledSeconds="1038.29" traveltime="51.73" density="17.66" occupancy="12.36" waitingTime="0.00" speed="18.94" departed="0" arrived="0" entered="20" left="21" laneChangedFrom="0" laneChangedTo="0"/>
        <edge id="6/1to7/1" sampledSeconds="1047.40" traveltime="51.73" density="17.81" occupancy="12.47" waitingTime="0.00" speed="18.94" departed="0" arrived="0" entered="21" left="20" laneChangedFrom="0" laneChangedTo="0"/>
        <edge id="7/1to8/1" sampledSeconds="1055.01" traveltime="51.74" density="17.94" occupancy="12.56" waitingTime="0.00" speed="18.94" departed="0" arrived="0" entered="20" left="21" laneChangedFrom="0" laneChangedTo="0"/>
        <edge id="8/1to9/1" sampledSeconds="1069.85" traveltime="51.74" density="18.20" occupancy="12.74" waitingTime="0.00" speed="18.94" departed="0" arrived="0" entered="21" left="21" laneChangedFrom="0" laneChangedTo="0"/>
        <edge id="9/1to10/1" sampledSeconds="1073.54" traveltime="51.72" density="18.26" occupancy="12.78" waitingTime="0.00" speed="18.95" departed="0" arrived="0" entered="21" left="21" laneChangedFrom="0" laneChangedTo="0"/>
    </interval>
    <interval begin="720.00" end="780.00" id="dump_60">
        <edge id="1/1to2/1" sampledSeconds="1201.08" traveltime="52.32" density="20.43" occupancy="14.30" waitingTime="0.00" speed="18.73" departed="2" arrived="0" entered="21" left="23" laneChangedFrom="0" laneChangedTo="0"/>
        <edge id="10/1to1/1" sampledSeconds="1071.58" traveltime="51.85" density="18.23" occupancy="12.76" waitingTime="0.00" speed="18.90" departed="0" arrived="0" entered="20" left="21" laneChangedFrom="0" laneChangedTo="0"/>
        <edge id="2/1to3/1" sampledSeconds="1173.54" traveltime="51.77" density="19.96" occupancy="13.97" waitingTime="0.00" speed="18.93" departed="0" arrived="0" entered="23" left="21" laneChangedFrom="0" laneChangedTo="0"/>
        <edge id="3/1to4/1" sampledSeconds="1098.40" traveltime="51.71" density="18.68" occupancy="13.08" waitingTime="0.00" speed="18.95" departed="0" arrived="0" entered="21" left="21" laneChangedFrom="0" laneChangedTo="0"/>
        <edge id="4/1to5/1" sampledSeconds="1096.84" traveltime="51.78" density="18.65" occupancy="13.06" waitingTime="0.00" speed="18.92" departed="0" arrived="0" entered="21" left="22" laneChangedFrom="0" laneChangedTo="0"/>
        <edge id="5/1to6/1" sampledSeconds="1101.95" traveltime="51.76" density="18.74" occupancy="13.12" waitingTime="0.00" speed="18.93" departed="0" arrived="0" entered="22" left="20" laneChangedFrom="0" laneChangedTo="0"/>
        <edge id="6/1to7/1" sampledSeconds="1035.64" traveltime="51.70" density="17.61" occupancy="12.33" waitingTime="0.00" speed="18.95" departed="0" arrived="0" entered="20" left="20" laneChangedFrom="0" laneChangedTo="0"/>
        <edge id="7/1to8/1" sampledSeconds="1046.56" traveltime="51.74" density="17.80" occupancy="12.46" waitingTime="0.00" speed="18.94" departed="0" arrived="0" entered="20" left="20" laneChangedFrom="0" laneChangedTo="0"/>
        <edge id="8/1to9/1" sampledSeconds="1049.21" traveltime="51.70" density="17.84" occupancy="12.49" waitingTime="0.00" speed="18.96" departed="0" arrived="0" entered="20" left="20" laneChangedFrom="0" laneChangedTo="0"/>
        <edge id="9/1to10/1" sampledSeconds="1075.64" traveltime="51.76" density="18.29" occupancy="12.81" waitingTime="0.00" speed="18.93" departed="0" arrived="0" entered="20" left="20" laneChangedFrom="0" laneChangedTo="0"/>
    </interval>
    <interval begin="780.00" end="840.00" id="dump_60">
        <edge id="1/1to2/1" sampledSeconds="1123.02" traveltime="51.70" density="19.10" occupancy="13.37" waitingTime="0.00" speed="18.95" departed="0" arrived="0" entered="21" left="23" laneChangedFrom="0" laneChangedTo="0"/>
        <edge id="10/1to1/1" sampledSeconds="1073.60" traveltime="51.68" density="18.26" occupancy="12.78" waitingTime="0.00" speed="18.96" departed="0" arrived="0" entered="21" left="21" laneChangedFrom="0" laneChangedTo="0"/>
        <edge id="2/1to3/1" sampledSeconds="1188.17" traveltime="51.72" density="20.21" occupancy="14.15" waitingTime="0.00" speed="18.95" departed="0" arrived="0" entered="22" left="24" laneChangedFrom="0" laneChangedTo="0"/>
        <edge id="3/1to4/1" sampledSeconds="1181.88" traveltime="51.71" density="20.10" occupancy="14.07" waitingTime="0.00" speed="18.95" departed="0" arrived="0" entered="23" left="22" laneChangedFrom="0" laneChangedTo="0"/>
        <edge id="4/1to5/1" sampledSeconds="1103.83" traveltime="51.74" density="18.77" occupancy="13.14" waitingTime="0.00" speed="18.94" departed="0" arrived="0" entered="22" left="21" laneChangedFrom="0" laneChangedTo="0"/>
        <edge id="5/1to6/1" sampledSeconds="1092.05" traveltime="51.73" density="18.57" occupancy="13.00" waitingTime="0.00" speed="18.94" departed="0" arrived="0" entered="21" left="21" laneChangedFrom="0" laneChangedTo="0"/>
        <edge id="6/1to7/1" sampledSeconds="1111.57" traveltime="51.74" density="18.91" occupancy="13.23" waitingTime="0.00" speed="18.94" departed="0" arrived="0" entered="21" left="21" laneChangedFrom="0" laneChangedTo="0"/>
        <edge id="7/1to8/1" sampledSeconds="1039.97" traveltime="51.75" density="17.69" occupancy="12.38" waitingTime="0.00" speed="18.94" departed="0" arrived="0" entered="21" left="20" laneChangedFrom="0" laneChangedTo="0"/>
        <edge id="8/1to9/1" sampledSeconds="1046.63" traveltime="51.72" density="17.80" occupancy="12.46" waitingTime="0.00" speed="18.95" departed="0" arrived="0" entered="20" left="20" laneChangedFrom="0" laneChangedTo="0"/>
        <edge id="9/1to10/1" sampledSeconds="1045.08" traveltime="51.72" density="17.77" occupancy="12.44" waitingTime="0.00" speed="18.95" departed="0" arrived="0" entered="20" left="21" laneChangedFrom="0" laneChangedTo="0"/>
    </interval>
    <interval begin="840.00" end="900.00" id="dump_60">
        <edge id="1/1to2/1" sampledSeconds="1067.83" traveltime="51.68" density="18.16" occupancy="12.71" waitingTime="0.00" speed="18.96" departed="0" arrived="0" entered="19" left="20" laneChangedFrom="0" laneChangedTo="0"/>
        <edge id="10/1to1/1" sampledSeconds="1047.11" traveltime="51.71" density="17.81" occupancy="12.47" waitingTime="0.00" speed="18.95" departed="0" arrived="0" entered="20" left="19" laneChangedFrom="0" laneChangedTo="0"/>
        <edge id="2/1to3/1" sampledSeconds="1108.28" traveltime="51.76" density="18.85" occupancy="13.19" waitingTime="0.00" speed="18.93" departed="0" arrived="0" entered="21" left="22" laneChangedFrom="0" laneChangedTo="0"/>
        <edge id="3/1to4/1" sampledSeconds="1187.49" traveltime="51.77" density="20.20" occupancy="14.14" waitingTime="0.00" speed="18.93" departed="0" arrived="0" entered="23" left="24" laneChangedFrom="0" laneChangedTo="0"/>
        <edge id="4/1to5/1" sampledSeconds="1187.22" traveltime="51.75" density="20.19" occupancy="14.13" waitingTime="0.00" speed="18.94" departed="0" arrived="0" entered="23" left="22" laneChangedFrom="0" laneChangedTo="0"/>
        <edge id="5/1to6/1" sampledSeconds="1113.65" traveltime="51.74" density="18.94" occupancy="13.26" waitingTime="0.00" speed="18.94" departed="0" arrived="0" entered="22" left="21" laneChangedFrom="0" laneChangedTo="0"/>
        <edge id="6/1to7/1" sampledSeconds="1094.72" traveltime="51.73" density="18.62" occupancy="13.03" waitingTime="0.00" speed="18.94" departed="0" arrived="0" entered="21" left="21" laneChangedFrom="0" laneChangedTo="0"/>
        <edge id="7/1to8/1" sampledSeconds="1108.38" traveltime="51.69" density="18.85" occupancy="13.20" waitingTime="0.00" speed="18.96" departed="0" arrived="0" entered="21" left="21" laneChangedFrom="0" laneChangedTo="0"/>
        <edge id="8/1to9/1" sampledSeconds="1048.06" traveltime="51.70" density="17.83" occupancy="12.48" waitingTime="0.00" speed="18.95" departed="0" arrived="0" entered="21" left="21" laneChangedFrom="0" laneChangedTo="0"/>
        <edge id="9/1to10/1" sampledSeconds="1043.45" traveltime="51.71" density="17.75" occupancy="12.42" waitingTime="0.00" speed="18.95" departed="0" arrived="0" entered="21" left="20" laneChangedFrom="0" laneChangedTo="0"/>
    </interval>
    <interval begin="900.00" end="960.00" id="dump_60">
        <edge id="1/1to2/1" sampledSeconds="1100.77" traveltime="51.97" density="18.72" occupancy="13.11" waitingTime="0.00" speed="18.85" departed="1" arrived="0" entered="21" left="20" laneChangedFrom="0" laneChangedTo="0"/>
        <edge id="10/1to1/1" sampledSeconds="1040.02" traveltime="51.80" density="17.69" occupancy="12.38" waitingTime="0.00" speed="18.92" departed="0" arrived="0" entered="20" left="21" laneChangedFrom="0" laneChangedTo="0"/>
        <edge id="2/1to3/1" sampledSeconds="1062.93" traveltime="51.73" density="18.08" occupancy="12.65" waitingTime="0.00" speed="18.94" departed="0" arrived="0" entered="20" left="21" laneChangedFrom="0" laneChangedTo="0"/>
        <edge id="3/1to4/1" sampledSeconds="1098.58" traveltime="51.70" density="18.68" occupancy="13.08" waitingTime="0.00" speed="18.96" departed="0" arrived="0" entered="21" left="21" laneChangedFrom="0" laneChangedTo="0"/>
        <edge id="4/1to5/1" sampledSeconds="1179.56" traveltime="51.74" density="20.06" occupancy="14.04" waitingTime="0.00" speed="18.94" departed="0" arrived="0" entered="22" left="23" laneChangedFrom="0" laneChangedTo="0"/>
        <edge id="5/1to6/1" sampledSeconds="1191.01" traveltime="51.74" density="20.26" occupancy="14.18" waitingTime="0.00" speed="18.94" departed="0" arrived="0" entered="23" left="23" laneChangedFrom="0" laneChangedTo="0"/>
        <edge id="6/1to7/1" sampledSeconds="1124.29" traveltime="51.73" density="19.12" occupancy="13.39" waitingTime="0.00" speed="18.94" departed="0" arrived="0" entered="23" left="21" laneChangedFrom="0" laneChangedTo="0"/>
        <edge id="7/1to8/1" sampledSeconds="1099.24" traveltime="51.75" density="18.70" occupancy="13.09" waitingTime="0.00" speed="18.93" departed="0" arrived="0" entered="21" left="21" laneChangedFrom="0" laneChangedTo="0"/>
        <edge id="8/1to9/1" sampledSeconds="1103.48" traveltime="51.65" density="18.77" occupancy="13.14" waitingTime="0.00" speed="18.97" departed="0" arrived="0" entered="21" left="21" laneChangedFrom="0" laneChangedTo="0"/>