<?xml version="1.0" encoding="UTF-8"?>

<!-- generated on 02.10.2020 14:15:09 by Eclipse SUMO netedit Version v1_7_0+0438-f2a81700a9
<configuration xmlns:xsi="http://www.w3.org/2001/XMLSchema-instance" xsi:noNamespaceSchemaLocation="http://sumo.dlr.de/xsd/netconvertConfiguration.xsd">

    <input>
        <sumo-net-file value="C:\Users\alva_pa\.texttest\tmp\netedit.gui.02Oct141445.14832\netedit.gui\netElements\junctions\merge\basic\input_net.net.xml"/>
    </input>

    <output>
        <output-file value="C:\Users\alva_pa\.texttest\tmp\netedit.gui.02Oct141445.14832\netedit.gui\netElements\junctions\merge\basic\net.net.xml"/>
    </output>

    <processing>
        <geometry.min-radius.fix.railways value="false"/>
        <geometry.max-grade.fix value="false"/>
        <offset.disable-normalization value="true"/>
        <lefthand value="false"/>
    </processing>

    <junctions>
        <no-turnarounds value="true"/>
        <junctions.corner-detail value="5"/>
        <junctions.limit-turn-speed value="5.5"/>
        <rectangular-lane-cut value="false"/>
    </junctions>

    <pedestrian>
        <walkingareas value="false"/>
    </pedestrian>

    <netedit>
        <additional-files value="C:\Users\alva_pa\.texttest\tmp\netedit.gui.02Oct141445.14832\netedit.gui\netElements\junctions\merge\basic\additionals.xml"/>
        <additionals-output value="C:\Users\alva_pa\.texttest\tmp\netedit.gui.02Oct141445.14832\netedit.gui\netElements\junctions\merge\basic\additionals.xml"/>
        <route-files value="C:\Users\alva_pa\.texttest\tmp\netedit.gui.02Oct141445.14832\netedit.gui\netElements\junctions\merge\basic\routes.xml"/>
        <demandelements-output value="C:\Users\alva_pa\.texttest\tmp\netedit.gui.02Oct141445.14832\netedit.gui\netElements\junctions\merge\basic\routes.xml"/>
        <data-files value="C:\Users\alva_pa\.texttest\tmp\netedit.gui.02Oct141445.14832\netedit.gui\netElements\junctions\merge\basic\datas.xml"/>
        <dataelements-output value="C:\Users\alva_pa\.texttest\tmp\netedit.gui.02Oct141445.14832\netedit.gui\netElements\junctions\merge\basic\datas.xml"/>
    </netedit>

    <visualisation>
        <gui-settings-file value="C:\Users\alva_pa\.texttest\tmp\netedit.gui.02Oct141445.14832\netedit.gui\netElements\junctions\merge\basic\gui-settings.xml"/>
        <window-size value="700,500"/>
        <window-pos value="50,50"/>
        <gui-testing value="true"/>
        <gui-testing-debug value="true"/>
        <gui-testing.setting-output value="C:\Users\alva_pa\.texttest\tmp\netedit.gui.02Oct141445.14832\netedit.gui\netElements\junctions\merge\basic\guisettingsoutput.xml"/>
    </visualisation>

    <report>
        <no-warnings value="true"/>
        <aggregate-warnings value="5"/>
        <error-log value="C:\Users\alva_pa\.texttest\tmp\netedit.gui.02Oct141445.14832\netedit.gui\netElements\junctions\merge\basic\log.txt"/>
    </report>

</configuration>
-->

<net version="1.6" junctionCornerDetail="5" limitTurnSpeed="5.50" xmlns:xsi="http://www.w3.org/2001/XMLSchema-instance" xsi:noNamespaceSchemaLocation="http://sumo.dlr.de/xsd/net_file.xsd">

    <location netOffset="0.00,0.00" convBoundary="-10.00,30.00,60.00,70.00" origBoundary="-10000000000.00,-10000000000.00,10000000000.00,10000000000.00" projParameter="!"/>

    <edge id=":gneJ1_0" function="internal">
        <lane id=":gneJ1_0_0" index="0" speed="13.89" length="14.40" shape="38.40,57.20 38.40,42.80"/>
    </edge>
    <edge id=":gneJ1_1" function="internal">
        <lane id=":gneJ1_1_0" index="0" speed="8.00" length="5.93" shape="38.40,57.20 38.95,53.35 40.00,51.60"/>
    </edge>
    <edge id=":gneJ1_6" function="internal">
        <lane id=":gneJ1_6_0" index="0" speed="8.00" length="8.26" shape="40.00,51.60 40.60,50.60 43.35,48.95 47.20,48.40"/>
    </edge>
    <edge id=":gneJ1_2" function="internal">
        <lane id=":gneJ1_2_0" index="0" speed="6.51" length="9.03" shape="47.20,51.60 44.75,51.95 43.00,53.00 41.95,54.75 41.60,57.20"/>
    </edge>
    <edge id=":gneJ1_3" function="internal">
        <lane id=":gneJ1_3_0" index="0" speed="8.00" length="14.19" shape="47.20,51.60 43.35,51.05 40.60,49.40 38.95,46.65 38.40,42.80"/>
    </edge>
    <edge id=":gneJ1_4" function="internal">
        <lane id=":gneJ1_4_0" index="0" speed="6.51" length="9.03" shape="41.60,42.80 41.95,45.25 43.00,47.00 44.75,48.05 47.20,48.40"/>
    </edge>
    <edge id=":gneJ1_5" function="internal">
        <lane id=":gneJ1_5_0" index="0" speed="13.89" length="14.40" shape="41.60,42.80 41.60,57.20"/>
    </edge>

    <edge id="gneE0" from="gneJ0" to="gneJ1" priority="-1">
        <lane id="gneE0_0" index="0" speed="13.89" length="12.80" shape="38.40,70.00 38.40,57.20"/>
    </edge>
    <edge id="gneE1" from="gneJ1" to="gneJ0" priority="-1">
        <lane id="gneE1_0" index="0" speed="13.89" length="12.80" shape="41.60,57.20 41.60,70.00"/>
    </edge>
    <edge id="gneE12" from="gneJ1" to="gneJ9" priority="-1">
        <lane id="gneE12_0" index="0" speed="13.89" length="42.80" shape="32.80,51.60 -10.00,51.60"/>
    </edge>
    <edge id="gneE13" from="gneJ9" to="gneJ1" priority="-1">
        <lane id="gneE13_0" index="0" speed="13.89" length="42.80" shape="-10.00,48.40 32.80,48.40"/>
    </edge>
    <edge id="gneE4" from="gneJ1" to="gneJ3" priority="-1">
        <lane id="gneE4_0" index="0" speed="13.89" length="12.80" shape="38.40,42.80 38.40,30.00"/>
    </edge>
    <edge id="gneE5" from="gneJ3" to="gneJ1" priority="-1">
        <lane id="gneE5_0" index="0" speed="13.89" length="12.80" shape="41.60,30.00 41.60,42.80"/>
    </edge>
    <edge id="gneE8" from="gneJ5" to="gneJ1" priority="-1">
        <lane id="gneE8_0" index="0" speed="13.89" length="12.80" shape="60.00,51.60 47.20,51.60"/>
    </edge>
    <edge id="gneE9" from="gneJ1" to="gneJ5" priority="-1">
        <lane id="gneE9_0" index="0" speed="13.89" length="12.80" shape="47.20,48.40 60.00,48.40"/>
    </edge>

    <junction id="gneJ0" type="dead_end" x="40.00" y="70.00" incLanes="gneE1_0" intLanes="" shape="40.00,70.00 43.20,70.00 40.00,70.00"/>
    <junction id="gneJ1" type="priority" x="40.00" y="50.00" incLanes="gneE0_0 gneE8_0 gneE5_0 gneE13_0" intLanes=":gneJ1_0_0 :gneJ1_6_0 :gneJ1_2_0 :gneJ1_3_0 :gneJ1_4_0 :gneJ1_5_0" shape="36.80,57.20 43.20,57.20 43.64,54.98 44.20,54.20 44.98,53.64 45.98,53.31 47.20,53.20 47.20,46.80 44.98,46.36 44.20,45.80 43.64,45.02 43.31,44.02 43.20,42.80 36.80,42.80 36.36,45.02 35.80,45.80 35.02,46.36 34.02,46.69 32.80,46.80 32.80,53.20 35.02,53.64 35.80,54.20 36.36,54.98 36.69,55.98">
        <request index="0" response="000000" foes="001000" cont="0"/>
        <request index="1" response="110000" foes="111000" cont="1"/>
        <request index="2" response="100000" foes="100000" cont="0"/>
        <request index="3" response="100011" foes="100011" cont="0"/>
        <request index="4" response="000000" foes="000010" cont="0"/>
        <request index="5" response="000000" foes="001110" cont="0"/>
    </junction>
    <junction id="gneJ3" type="dead_end" x="40.00" y="30.00" incLanes="gneE4_0" intLanes="" shape="40.00,30.00 36.80,30.00 40.00,30.00"/>
    <junction id="gneJ5" type="dead_end" x="60.00" y="50.00" incLanes="gneE9_0" intLanes="" shape="60.00,50.00 60.00,46.80 60.00,50.00"/>
    <junction id="gneJ9" type="dead_end" x="-10.00" y="50.00" incLanes="gneE12_0" intLanes="" shape="-10.00,50.00 -10.00,53.20 -10.00,50.00"/>

    <junction id=":gneJ1_6_0" type="internal" x="40.00" y="51.60" incLanes=":gneJ1_1_0 gneE5_0" intLanes=":gneJ1_3_0 :gneJ1_4_0 :gneJ1_5_0"/>

    <connection from="gneE0" to="gneE4" fromLane="0" toLane="0" via=":gneJ1_0_0" dir="s" state="M"/>
    <connection from="gneE0" to="gneE9" fromLane="0" toLane="0" via=":gneJ1_1_0" dir="l" state="m"/>
    <connection from="gneE5" to="gneE9" fromLane="0" toLane="0" via=":gneJ1_4_0" dir="r" state="M"/>
    <connection from="gneE5" to="gneE1" fromLane="0" toLane="0" via=":gneJ1_5_0" dir="s" state="M"/>
    <connection from="gneE8" to="gneE1" fromLane="0" toLane="0" via=":gneJ1_2_0" dir="r" state="m"/>
    <connection from="gneE8" to="gneE4" fromLane="0" toLane="0" via=":gneJ1_3_0" dir="l" state="m"/>

    <connection from=":gneJ1_0" to="gneE4" fromLane="0" toLane="0" dir="s" state="M"/>
    <connection from=":gneJ1_1" to="gneE9" fromLane="0" toLane="0" via=":gneJ1_6_0" dir="l" state="m"/>
    <connection from=":gneJ1_6" to="gneE9" fromLane="0" toLane="0" dir="l" state="M"/>
    <connection from=":gneJ1_2" to="gneE1" fromLane="0" toLane="0" dir="r" state="M"/>
    <connection from=":gneJ1_3" to="gneE4" fromLane="0" toLane="0" dir="l" state="M"/>
    <connection from=":gneJ1_4" to="gneE9" fromLane="0" toLane="0" dir="r" state="M"/>
    <connection from=":gneJ1_5" to="gneE1" fromLane="0" toLane="0" dir="s" state="M"/>

</net>
