<?xml version="1.0" encoding="UTF-8"?>

<!-- generated on 2023-03-12 23:13:30 by Eclipse SUMO netconvert Version v1_16_0+1184-34b48af0740
<configuration xmlns:xsi="http://www.w3.org/2001/XMLSchema-instance" xsi:noNamespaceSchemaLocation="http://sumo.dlr.de/xsd/netconvertConfiguration.xsd">

    <input>
        <sumo-net-file value="input_net.net.xml"/>
        <node-files value="net.nod.xml"/>
        <edge-files value="net.edg.xml"/>
    </input>

    <output>
        <output-file value="net.net.xml"/>
        <output.street-names value="true"/>
    </output>

    <processing>
        <geometry.min-radius.fix.railways value="false"/>
        <geometry.max-grade.fix value="false"/>
        <offset.disable-normalization value="true"/>
        <lefthand value="0"/>
    </processing>

    <junctions>
        <no-turnarounds value="true"/>
        <junctions.corner-detail value="0"/>
        <junctions.limit-turn-speed value="5.50"/>
        <rectangular-lane-cut value="0"/>
    </junctions>

    <pedestrian>
        <walkingareas value="0"/>
    </pedestrian>

</configuration>
-->

<net version="1.16" limitTurnSpeed="5.50" xmlns:xsi="http://www.w3.org/2001/XMLSchema-instance" xsi:noNamespaceSchemaLocation="http://sumo.dlr.de/xsd/net_file.xsd">

    <location netOffset="-339139.35,-5788711.14" convBoundary="17332.62,42037.43,18431.28,42593.67" origBoundary="12.635011,52.237972,14.221191,52.746091" projParameter="+proj=utm +zone=33 +ellps=WGS84 +datum=WGS84 +units=m +no_defs"/>

    <type id="highway.bridleway" priority="1" numLanes="1" speed="2.78" allow="pedestrian" oneway="1" width="2.00"/>
    <type id="highway.bus_guideway" priority="1" numLanes="1" speed="27.78" allow="bus" oneway="1"/>
    <type id="highway.cycleway" priority="1" numLanes="1" speed="5.56" allow="bicycle" oneway="0" width="1.00"/>
    <type id="highway.footway" priority="1" numLanes="1" speed="2.78" allow="pedestrian" oneway="1" width="2.00"/>
    <type id="highway.ford" priority="1" numLanes="1" speed="2.78" allow="army" oneway="0"/>
    <type id="highway.living_street" priority="2" numLanes="1" speed="2.78" disallow="tram rail_urban rail rail_electric rail_fast ship" oneway="0"/>
    <type id="highway.motorway" priority="14" numLanes="2" speed="39.44" allow="private emergency authority army vip passenger hov taxi bus coach delivery truck trailer motorcycle evehicle custom1 custom2" oneway="1"/>
    <type id="highway.motorway_link" priority="9" numLanes="1" speed="22.22" allow="private emergency authority army vip passenger hov taxi bus coach delivery truck trailer motorcycle evehicle custom1 custom2" oneway="1"/>
    <type id="highway.path" priority="1" numLanes="1" speed="5.56" allow="pedestrian bicycle" oneway="0" width="2.00"/>
    <type id="highway.pedestrian" priority="1" numLanes="1" speed="2.78" allow="pedestrian" oneway="1" width="2.00"/>
    <type id="highway.primary" priority="12" numLanes="2" speed="27.78" disallow="tram rail_urban rail rail_electric rail_fast ship" oneway="0"/>
    <type id="highway.primary_link" priority="7" numLanes="1" speed="22.22" disallow="tram rail_urban rail rail_electric rail_fast ship" oneway="0"/>
    <type id="highway.raceway" priority="15" numLanes="2" speed="83.33" allow="vip" oneway="0"/>
    <type id="highway.residential" priority="3" numLanes="1" speed="13.89" disallow="tram rail_urban rail rail_electric rail_fast ship" oneway="0"/>
    <type id="highway.secondary" priority="11" numLanes="1" speed="27.78" disallow="tram rail_urban rail rail_electric rail_fast ship" oneway="0"/>
    <type id="highway.secondary_link" priority="6" numLanes="1" speed="22.22" disallow="tram rail_urban rail rail_electric rail_fast ship" oneway="0"/>
    <type id="highway.service" priority="1" numLanes="1" speed="5.56" allow="pedestrian delivery bicycle" oneway="0"/>
    <type id="highway.service|railway.tram" priority="17" numLanes="1" speed="13.89" allow="pedestrian delivery bicycle tram" oneway="0"/>
    <type id="highway.stairs" priority="1" numLanes="1" speed="1.39" allow="pedestrian" oneway="1" width="2.00"/>
    <type id="highway.step" priority="1" numLanes="1" speed="1.39" allow="pedestrian" oneway="1" width="2.00"/>
    <type id="highway.steps" priority="1" numLanes="1" speed="1.39" allow="pedestrian" oneway="1" width="2.00"/>
    <type id="highway.tertiary" priority="10" numLanes="1" speed="22.22" disallow="tram rail_urban rail rail_electric rail_fast ship" oneway="0"/>
    <type id="highway.tertiary_link" priority="5" numLanes="1" speed="22.22" disallow="tram rail_urban rail rail_electric rail_fast ship" oneway="0"/>
    <type id="highway.track" priority="1" numLanes="1" speed="5.56" allow="pedestrian motorcycle moped bicycle" oneway="0"/>
    <type id="highway.trunk" priority="13" numLanes="2" speed="27.78" disallow="pedestrian bicycle tram rail_urban rail rail_electric rail_fast ship" oneway="0"/>
    <type id="highway.trunk_link" priority="8" numLanes="1" speed="22.22" disallow="pedestrian bicycle tram rail_urban rail rail_electric rail_fast ship" oneway="0"/>
    <type id="highway.unclassified" priority="4" numLanes="1" speed="13.89" disallow="tram rail_urban rail rail_electric rail_fast ship" oneway="0"/>
    <type id="highway.unsurfaced" priority="1" numLanes="1" speed="8.33" disallow="tram rail_urban rail rail_electric rail_fast ship" oneway="0"/>
    <type id="railway.highspeed" priority="21" numLanes="1" speed="69.44" allow="rail_fast" oneway="1"/>
    <type id="railway.light_rail" priority="19" numLanes="1" speed="27.78" allow="rail_urban" oneway="1"/>
    <type id="railway.light_rail|usage.branch" priority="19" numLanes="1" speed="27.78" allow="rail_urban" oneway="1"/>
    <type id="railway.light_rail|usage.main" priority="19" numLanes="1" speed="27.78" allow="rail_urban" oneway="1"/>
    <type id="railway.preserved" priority="16" numLanes="1" speed="27.78" allow="rail" oneway="1"/>
    <type id="railway.rail" priority="20" numLanes="1" speed="44.44" allow="rail" oneway="1"/>
    <type id="railway.rail|usage.branch" priority="20" numLanes="1" speed="44.44" allow="rail" oneway="1"/>
    <type id="railway.rail|usage.industrial" priority="20" numLanes="1" speed="44.44" allow="rail" oneway="1"/>
    <type id="railway.rail|usage.main" priority="20" numLanes="1" speed="44.44" allow="rail" oneway="1"/>
    <type id="railway.rail|usage.test" priority="20" numLanes="1" speed="44.44" allow="rail" oneway="1"/>
    <type id="railway.subway" priority="18" numLanes="1" speed="27.78" allow="rail_urban" oneway="1"/>
    <type id="railway.subway|usage.branch" priority="18" numLanes="1" speed="27.78" allow="rail_urban" oneway="1"/>
    <type id="railway.subway|usage.main" priority="18" numLanes="1" speed="27.78" allow="rail_urban" oneway="1"/>
    <type id="railway.tram" priority="17" numLanes="1" speed="13.89" allow="tram" oneway="1"/>
    <type id="railway.tram|usage.main" priority="17" numLanes="1" speed="13.89" allow="tram" oneway="1"/>
    <type id="usage.branch" disallow="all" oneway="1"/>
    <type id="usage.industrial" disallow="all" oneway="1"/>
    <type id="usage.main" disallow="all" oneway="1"/>
    <type id="usage.military" disallow="all" oneway="1"/>
    <type id="usage.test" disallow="all" oneway="1"/>
    <type id="usage.tourism" disallow="all" oneway="1"/>

    <edge id=":1383487001_0" function="internal">
        <lane id=":1383487001_0_0" index="0" allow="rail rail_electric rail_fast" speed="0.10" length="0.10" shape="18353.83,42245.84 18353.83,42245.84"/>
    </edge>
    <edge id=":1383487016_0" function="internal">
        <lane id=":1383487016_0_0" index="0" allow="rail" speed="44.44" length="7.53" shape="18280.04,42279.56 18273.19,42282.69"/>
    </edge>
    <edge id=":1383487016_1" function="internal">
        <lane id=":1383487016_1_0" index="0" allow="rail rail_electric rail_fast" speed="15.43" length="7.40" shape="18280.04,42279.56 18278.05,42280.20 18276.58,42280.09 18275.08,42279.47 18273.04,42278.59"/>
    </edge>
    <edge id=":1383487022_0" function="internal">
        <lane id=":1383487022_0_0" index="0" allow="rail rail_fast" speed="15.17" length="7.19" shape="18166.04,42199.73 18165.06,42200.44 18164.09,42201.66 18163.14,42203.40 18162.20,42205.65"/>
    </edge>
    <edge id=":1383487022_1" function="internal">
        <lane id=":1383487022_1_0" index="0" allow="rail rail_fast" speed="63.89" length="7.53" shape="18166.04,42199.73 18159.19,42202.86"/>
    </edge>
    <edge id=":1383487026_0" function="internal">
        <lane id=":1383487026_0_0" index="0" allow="rail rail_electric rail_fast" speed="0.10" length="0.10" shape="18145.86,42252.93 18145.86,42252.93"/>
    </edge>
    <edge id=":1383487041_0" function="internal">
        <lane id=":1383487041_0_0" index="0" allow="rail rail_electric rail_fast" speed="36.11" length="7.53" shape="18114.36,42267.33 18107.51,42270.46"/>
    </edge>
    <edge id=":1383487041_1" function="internal">
        <lane id=":1383487041_1_0" index="0" allow="rail rail_electric rail_fast" speed="15.43" length="7.40" shape="18111.35,42264.53 18110.68,42266.65 18110.18,42268.19 18109.29,42269.38 18107.51,42270.46"/>
    </edge>
    <edge id=":1383487095_0" function="internal">
        <lane id=":1383487095_0_0" index="0" allow="rail" speed="9.73" length="6.30" shape="18090.25,42344.33 18089.27,42345.03 18088.48,42346.16 18087.87,42347.72 18087.45,42349.71"/>
    </edge>
    <edge id=":1383487095_1" function="internal">
        <lane id=":1383487095_1_0" index="0" allow="rail rail_electric rail_fast" speed="44.44" length="6.82" shape="18090.25,42344.33 18084.05,42347.16"/>
    </edge>
    <edge id=":1383487095_2" function="internal">
        <lane id=":1383487095_2_0" index="0" allow="rail" speed="5.07" length="5.95" shape="18087.45,42349.71 18087.48,42347.90 18086.93,42346.87 18085.78,42346.62 18084.05,42347.16"/>
    </edge>
    <edge id=":1383487116_0" function="internal">
        <lane id=":1383487116_0_0" index="0" allow="rail rail_electric rail_fast" speed="44.44" length="7.52" shape="18063.63,42356.49 18056.78,42359.62"/>
    </edge>
    <edge id=":1383487122_0" function="internal">
        <lane id=":1383487122_0_0" index="0" allow="rail rail_electric rail_fast" speed="44.44" length="8.45" shape="18032.37,42370.78 18030.30,42372.01 18029.22,42373.31 18028.46,42374.96 18027.34,42377.23"/>
    </edge>
    <edge id=":1383487122_1" function="internal">
        <lane id=":1383487122_1_0" index="0" allow="rail rail_electric rail_fast" speed="44.44" length="8.47" shape="18032.37,42370.78 18024.67,42374.30"/>
    </edge>
    <edge id=":1383487122_2" function="internal">
        <lane id=":1383487122_2_0" index="0" allow="rail rail_electric rail_fast" speed="5.11" length="7.53" shape="18024.67,42374.30 18027.04,42373.48 18028.27,42373.69 18028.37,42374.94 18027.34,42377.23"/>
    </edge>
    <edge id=":1383487142_0" function="internal">
        <lane id=":1383487142_0_0" index="0" allow="rail rail_fast" speed="15.42" length="7.40" shape="17895.18,42275.38 17897.22,42276.26 17898.72,42276.88 17900.19,42276.99 17902.18,42276.35"/>
    </edge>
    <edge id=":1383487142_1" function="internal">
        <lane id=":1383487142_1_0" index="0" allow="rail rail_fast" speed="40.28" length="7.53" shape="17895.33,42279.48 17902.18,42276.35"/>
    </edge>
    <edge id=":1383487144_0" function="internal">
        <lane id=":1383487144_0_0" index="0" allow="rail rail_electric rail_fast" speed="44.44" length="7.38" shape="18014.61,42399.59 18013.57,42401.51 18012.97,42402.88 18012.47,42404.30 18011.74,42406.37"/>
    </edge>
    <edge id=":1383487144_1" function="internal">
        <lane id=":1383487144_1_0" index="0" allow="rail rail_electric rail_fast" speed="44.44" length="7.32" shape="18014.61,42399.59 18013.40,42401.30 18012.22,42402.18 18010.76,42402.76 18008.73,42403.57"/>
    </edge>
    <edge id=":1383487144_2" function="internal" bidi=":1383487144_3">
        <lane id=":1383487144_2_0" index="0" allow="rail rail_electric rail_fast" speed="5.03" length="6.64" shape="18008.73,42403.57 18010.75,42402.91 18011.92,42403.15 18012.25,42404.31 18011.74,42406.37"/>
    </edge>
    <edge id=":1383487144_3" function="internal" bidi=":1383487144_2">
        <lane id=":1383487144_3_0" index="0" allow="rail rail_electric rail_fast" speed="5.03" length="6.64" shape="18011.74,42406.37 18012.25,42404.31 18011.92,42403.15 18010.75,42402.91 18008.73,42403.57"/>
    </edge>
    <edge id=":1383487147_0" function="internal">
        <lane id=":1383487147_0_0" index="0" allow="rail rail_electric rail_fast" speed="44.44" length="7.52" shape="17968.07,42378.18 17974.92,42375.05"/>
    </edge>
    <edge id=":1383487149_0" function="internal">
        <lane id=":1383487149_0_0" index="0" allow="rail rail_fast" speed="15.42" length="7.40" shape="17920.56,42311.93 17918.78,42313.01 17917.90,42314.20 17917.39,42315.74 17916.72,42317.86"/>
    </edge>
    <edge id=":1383487149_1" function="internal">
        <lane id=":1383487149_1_0" index="0" allow="rail rail_fast" speed="40.28" length="7.53" shape="17920.56,42311.93 17913.71,42315.06"/>
    </edge>
    <edge id=":1383487189_0" function="internal">
        <lane id=":1383487189_0_0" index="0" allow="rail rail_electric rail_fast" speed="15.43" length="7.40" shape="17837.25,42332.19 17835.21,42331.31 17833.71,42330.69 17832.24,42330.58 17830.25,42331.22"/>
    </edge>
    <edge id=":1383487192_0" function="internal">
        <lane id=":1383487192_0_0" index="0" allow="rail rail_electric rail_fast" speed="15.19" length="7.19" shape="17853.13,42386.73 17852.15,42387.44 17851.18,42388.66 17850.23,42390.40 17849.29,42392.65"/>
    </edge>
    <edge id=":1383487192_1" function="internal">
        <lane id=":1383487192_1_0" index="0" allow="rail rail_electric rail_fast" speed="27.78" length="7.52" shape="17853.13,42386.73 17846.28,42389.86"/>
    </edge>
    <edge id=":1383487194_0" function="internal">
        <lane id=":1383487194_0_0" index="0" allow="rail rail_electric rail_fast" speed="16.67" length="7.53" shape="17786.95,42351.01 17780.10,42354.14"/>
    </edge>
    <edge id=":1383487200_0" function="internal">
        <lane id=":1383487200_0_0" index="0" allow="rail rail_electric rail_fast" speed="19.45" length="0.10" shape="17763.88,42361.56 17763.88,42361.56"/>
    </edge>
    <edge id=":1383487280_0" function="internal">
        <lane id=":1383487280_0_0" index="0" allow="rail rail_electric rail_fast" speed="0.10" length="0.10" shape="17770.47,42534.47 17770.47,42534.47"/>
    </edge>
    <edge id=":1383487286_0" function="internal">
        <lane id=":1383487286_0_0" index="0" allow="rail rail_electric rail_fast" speed="0.10" length="0.10" shape="17727.30,42510.22 17727.30,42510.22"/>
    </edge>
    <edge id=":1383487287_0" function="internal">
        <lane id=":1383487287_0_0" index="0" allow="rail rail_electric rail_fast" speed="0.10" length="0.10" shape="17738.00,42527.32 17738.00,42527.32"/>
    </edge>
    <edge id=":1383487304_0" function="internal">
        <lane id=":1383487304_0_0" index="0" allow="rail rail_electric rail_fast" speed="22.23" length="0.10" shape="17684.17,42463.96 17684.17,42463.96"/>
    </edge>
    <edge id=":1383487311_0" function="internal">
        <lane id=":1383487311_0_0" index="0" allow="rail rail_electric rail_fast" speed="15.19" length="7.19" shape="17643.00,42416.81 17642.02,42417.52 17641.05,42418.74 17640.10,42420.48 17639.16,42422.73"/>
    </edge>
    <edge id=":1383487311_1" function="internal">
        <lane id=":1383487311_1_0" index="0" allow="rail rail_electric rail_fast" speed="19.45" length="7.53" shape="17643.00,42416.81 17636.15,42419.94"/>
    </edge>
    <edge id=":1383487338_0" function="internal">
        <lane id=":1383487338_0_0" index="0" allow="rail rail_electric rail_fast" speed="15.20" length="7.19" shape="17624.67,42495.32 17622.35,42494.56 17620.41,42494.14 17618.86,42494.07 17617.68,42494.35"/>
    </edge>
    <edge id=":1383487338_1" function="internal">
        <lane id=":1383487338_1_0" index="0" allow="rail rail_electric rail_fast" speed="16.67" length="7.53" shape="17624.53,42491.22 17617.68,42494.35"/>
    </edge>
    <edge id=":1383487342_0" function="internal">
        <lane id=":1383487342_0_0" index="0" allow="rail rail_electric rail_fast" speed="30.55" length="7.53" shape="17578.27,42446.40 17571.42,42449.53"/>
    </edge>
    <edge id=":1383487342_1" function="internal">
        <lane id=":1383487342_1_0" index="0" allow="rail rail_electric rail_fast" speed="15.20" length="7.19" shape="17578.27,42446.40 17577.09,42446.68 17575.54,42446.61 17573.60,42446.19 17571.27,42445.43"/>
    </edge>
    <edge id=":1383487342_2" function="internal">
        <lane id=":1383487342_2_0" index="0" allow="rail rail_electric rail_fast" speed="5.03" length="6.64" shape="17571.42,42449.53 17573.24,42448.44 17573.82,42447.39 17573.17,42446.39 17571.27,42445.43"/>
    </edge>
    <edge id=":1383487364_0" function="internal">
        <lane id=":1383487364_0_0" index="0" allow="rail rail_fast" speed="15.43" length="7.40" shape="17570.25,42476.22 17568.21,42475.34 17566.71,42474.72 17565.24,42474.61 17563.25,42475.25"/>
    </edge>
    <edge id=":1383487364_1" function="internal">
        <lane id=":1383487364_1_0" index="0" allow="rail rail_fast" speed="43.05" length="7.53" shape="17570.10,42472.12 17563.25,42475.25"/>
    </edge>
    <edge id=":1383487368_0" function="internal">
        <lane id=":1383487368_0_0" index="0" allow="rail rail_electric rail_fast" speed="0.10" length="0.10" shape="17527.85,42469.44 17527.85,42469.44"/>
    </edge>
    <edge id=":1383487378_0" function="internal">
        <lane id=":1383487378_0_0" index="0" allow="rail rail_electric rail_fast" speed="16.67" length="7.53" shape="17569.96,42516.16 17563.11,42519.29"/>
    </edge>
    <edge id=":1383487386_0" function="internal">
        <lane id=":1383487386_0_0" index="0" allow="rail rail_fast" speed="63.89" length="7.52" shape="17478.94,42471.49 17481.57,42464.44"/>
    </edge>
    <edge id=":1383487387_0" function="internal">
        <lane id=":1383487387_0_0" index="0" allow="rail rail_electric rail_fast" speed="30.55" length="7.52" shape="17552.57,42524.11 17545.72,42527.24"/>
    </edge>
    <edge id=":1383487387_1" function="internal">
        <lane id=":1383487387_1_0" index="0" allow="rail rail_electric rail_fast" speed="15.19" length="7.19" shape="17552.57,42524.11 17551.39,42524.39 17549.84,42524.32 17547.90,42523.90 17545.58,42523.14"/>
    </edge>
    <edge id=":1383487393_0" function="internal">
        <lane id=":1383487393_0_0" index="0" allow="rail rail_fast" speed="15.19" length="7.19" shape="17446.78,42532.65 17444.46,42531.89 17442.52,42531.47 17440.97,42531.40 17439.79,42531.68"/>
    </edge>
    <edge id=":1383487393_1" function="internal">
        <lane id=":1383487393_1_0" index="0" allow="rail rail_fast" speed="63.89" length="7.52" shape="17446.64,42528.55 17439.79,42531.68"/>
    </edge>
    <edge id=":1383499632_0" function="internal">
        <lane id=":1383499632_0_0" index="0" allow="rail rail_electric rail_fast" speed="15.43" length="7.40" shape="17526.83,42535.88 17525.05,42536.96 17524.16,42538.15 17523.66,42539.69 17522.99,42541.81"/>
    </edge>
    <edge id=":1383499632_1" function="internal">
        <lane id=":1383499632_1_0" index="0" allow="rail rail_electric rail_fast" speed="44.44" length="7.53" shape="17526.83,42535.88 17519.98,42539.01"/>
    </edge>
    <edge id=":1383506146_0" function="internal">
        <lane id=":1383506146_0_0" index="0" allow="rail" speed="11.75" length="6.71" shape="17800.93,42274.50 17802.97,42275.38 17804.72,42275.88 17806.18,42275.99 17807.36,42275.71"/>
    </edge>
    <edge id=":1383506146_1" function="internal">
        <lane id=":1383506146_1_0" index="0" allow="rail" speed="44.44" length="7.13" shape="17800.87,42278.67 17807.36,42275.71"/>
    </edge>
    <edge id=":1383506147_0" function="internal">
        <lane id=":1383506147_0_0" index="0" allow="rail" speed="15.44" length="7.40" shape="17762.31,42270.14 17764.35,42271.02 17765.85,42271.64 17767.32,42271.75 17769.31,42271.11"/>
    </edge>
    <edge id=":1383506147_1" function="internal">
        <lane id=":1383506147_1_0" index="0" allow="rail" speed="44.44" length="7.53" shape="17762.46,42274.24 17769.31,42271.11"/>
    </edge>
    <edge id=":1383506183_0" function="internal">
        <lane id=":1383506183_0_0" index="0" allow="rail" speed="0.10" length="0.10" shape="17673.69,42292.83 17673.69,42292.83"/>
    </edge>
    <edge id=":258058797_0" function="internal">
        <lane id=":258058797_0_0" index="0" allow="rail" speed="15.18" length="7.19" shape="17840.76,42260.45 17841.74,42259.74 17842.71,42258.52 17843.66,42256.78 17844.60,42254.53"/>
    </edge>
    <edge id=":258058797_1" function="internal">
        <lane id=":258058797_1_0" index="0" allow="rail" speed="44.44" length="7.52" shape="17840.76,42260.45 17847.61,42257.32"/>
    </edge>
    <edge id=":258059584_0" function="internal">
        <lane id=":258059584_0_0" index="0" allow="rail" speed="0.10" length="0.10" shape="18239.78,42056.07 18239.78,42056.07"/>
    </edge>
    <edge id=":258059584_1" function="internal">
        <lane id=":258059584_1_0" index="0" allow="rail" speed="44.44" length="3.00" shape="18237.06,42057.31 18239.78,42056.07"/>
    </edge>
    <edge id=":258060309_0" function="internal">
        <lane id=":258060309_0_0" index="0" allow="rail" speed="15.18" length="7.19" shape="17682.40,42332.83 17683.38,42332.12 17684.35,42330.90 17685.30,42329.16 17686.24,42326.91"/>
    </edge>
    <edge id=":258060309_1" function="internal">
        <lane id=":258060309_1_0" index="0" allow="rail" speed="44.44" length="7.52" shape="17682.40,42332.83 17689.25,42329.70"/>
    </edge>
    <edge id=":2990793443_0" function="internal">
        <lane id=":2990793443_0_0" index="0" allow="rail rail_fast" speed="63.89" length="7.53" shape="17389.16,42554.82 17382.31,42557.95"/>
    </edge>
    <edge id=":2990793443_1" function="internal">
        <lane id=":2990793443_1_0" index="0" allow="rail rail_fast" speed="15.43" length="7.40" shape="17389.16,42554.82 17387.17,42555.46 17385.70,42555.35 17384.20,42554.73 17382.16,42553.85"/>
    </edge>
    <edge id=":2990793444_0" function="internal">
        <lane id=":2990793444_0_0" index="0" allow="rail rail_fast" speed="63.89" length="7.53" shape="17358.71,42546.75 17365.56,42543.62"/>
    </edge>
    <edge id=":3056403714_0" function="internal">
        <lane id=":3056403714_0_0" index="0" allow="rail rail_fast" speed="63.89" length="0.10" shape="18332.01,42101.88 18332.01,42101.88"/>
    </edge>
    <edge id=":3269669673_0" function="internal">
        <lane id=":3269669673_0_0" index="0" allow="rail" speed="0.10" length="0.10" shape="17820.52,42533.58 17820.52,42533.58"/>
    </edge>
    <edge id=":3692318838_0" function="internal">
        <lane id=":3692318838_0_0" index="0" allow="rail" speed="44.44" length="7.52" shape="18353.73,42047.97 18346.88,42051.10"/>
    </edge>
    <edge id=":3692318838_1" function="internal">
        <lane id=":3692318838_1_0" index="0" allow="rail" speed="15.20" length="7.19" shape="18353.73,42047.97 18352.55,42048.25 18351.00,42048.18 18349.06,42047.76 18346.74,42047.00"/>
    </edge>
    <edge id=":3692318843_0" function="internal">
        <lane id=":3692318843_0_0" index="0" allow="rail" speed="0.10" length="0.10" shape="18280.57,42037.43 18280.57,42037.43"/>
    </edge>
    <edge id=":3692318844_0" function="internal">
        <lane id=":3692318844_0_0" index="0" allow="rail" speed="0.10" length="0.10" shape="18369.95,42040.56 18369.95,42040.56"/>
    </edge>
    <edge id=":4078624344_0" function="internal">
        <lane id=":4078624344_0_0" index="0" allow="rail" speed="44.44" length="7.53" shape="18239.33,42082.43 18232.28,42079.81"/>
    </edge>
    <edge id=":4078624344_1" function="internal">
        <lane id=":4078624344_1_0" index="0" allow="rail" speed="15.42" length="7.40" shape="18239.19,42078.33 18237.22,42079.35 18235.77,42080.08 18234.31,42080.30 18232.28,42079.81"/>
    </edge>
    <edge id=":4078624345_0" function="internal">
        <lane id=":4078624345_0_0" index="0" allow="rail" speed="44.44" length="7.52" shape="18205.84,42071.59 18212.69,42068.46"/>
    </edge>
    <edge id=":4078624347_0" function="internal">
        <lane id=":4078624347_0_0" index="0" allow="rail rail_fast" speed="15.43" length="7.40" shape="18217.84,42149.89 18219.88,42150.77 18221.38,42151.39 18222.85,42151.50 18224.84,42150.86"/>
    </edge>
    <edge id=":4078624347_1" function="internal">
        <lane id=":4078624347_1_0" index="0" allow="rail rail_fast" speed="45.84" length="7.53" shape="18217.99,42153.99 18224.84,42150.86"/>
    </edge>
    <edge id=":566337733_0" function="internal">
        <lane id=":566337733_0_0" index="0" allow="rail rail_electric rail_fast" speed="15.19" length="7.19" shape="18075.07,42285.29 18074.09,42286.00 18073.12,42287.22 18072.17,42288.96 18071.23,42291.21"/>
    </edge>
    <edge id=":566337733_1" function="internal">
        <lane id=":566337733_1_0" index="0" allow="rail rail_electric rail_fast" speed="27.78" length="7.52" shape="18075.07,42285.29 18068.22,42288.42"/>
    </edge>
    <edge id=":566337751_0" function="internal">
        <lane id=":566337751_0_0" index="0" allow="rail rail_fast" speed="63.89" length="7.52" shape="18178.50,42194.04 18171.65,42197.17"/>
    </edge>

    <edge id="-124262109#0" from="1383487016" to="1383487001" priority="20" type="railway.rail" spreadType="center" length="282.96" bidi="124262109#0">
        <lane id="-124262109#0_0" index="0" allow="rail rail_electric rail_fast" speed="44.44" length="282.96" shape="18280.04,42279.56 18353.83,42245.84">
            <param key="origId" value="124262109"/>
        </lane>
        <param key="electrified" value="contact_line"/>
        <param key="frequency" value="16.7"/>
        <param key="gauge" value="1435"/>
        <param key="operator" value="DB Netz AG"/>
        <param key="railway" value="rail"/>
        <param key="railway:etcs" value="no"/>
        <param key="railway:gnt" value="no"/>
        <param key="railway:lzb" value="no"/>
        <param key="railway:pzb" value="no"/>
        <param key="service" value="yard"/>
        <param key="voltage" value="15000"/>
        <param key="workrules" value="DE:EBO"/>
    </edge>
    <edge id="-124262115" from="1383487368" to="1383487342" priority="20" type="railway.rail" spreadType="center" length="51.88" bidi="124262115">
        <lane id="-124262115_0" index="0" allow="rail rail_electric rail_fast" speed="44.44" length="51.88" shape="17527.85,42469.44 17571.42,42449.53">
            <param key="origId" value="124262115"/>
        </lane>
        <param key="electrified" value="contact_line"/>
        <param key="frequency" value="16.7"/>
        <param key="gauge" value="1435"/>
        <param key="operator" value="DB Netz AG"/>
        <param key="railway" value="rail"/>
        <param key="railway:etcs" value="no"/>
        <param key="railway:gnt" value="no"/>
        <param key="railway:lzb" value="no"/>
        <param key="railway:pzb" value="no"/>
        <param key="service" value="yard"/>
        <param key="voltage" value="15000"/>
        <param key="workrules" value="DE:EBO"/>
    </edge>
    <edge id="-124262120" from="1383487026" to="1383487041" priority="20" type="railway.rail" spreadType="center" length="17.76" bidi="124262120">
        <lane id="-124262120_0" index="0" allow="rail rail_electric rail_fast" speed="44.44" length="17.76" shape="18145.86,42252.93 18114.36,42267.33">
            <param key="origId" value="124262120"/>
        </lane>
        <param key="electrified" value="contact_line"/>
        <param key="frequency" value="16.7"/>
        <param key="gauge" value="1435"/>
        <param key="operator" value="DB Netz AG"/>
        <param key="railway" value="rail"/>
        <param key="railway:etcs" value="no"/>
        <param key="railway:gnt" value="no"/>
        <param key="railway:lzb" value="no"/>
        <param key="railway:pzb" value="no"/>
        <param key="service" value="yard"/>
        <param key="voltage" value="15000"/>
        <param key="workrules" value="DE:EBO"/>
    </edge>
    <edge id="-124262124" from="3269669673" to="1383487095" priority="20" type="railway.rail" spreadType="center" length="520.90" shape="17820.52,42533.58 18077.58,42416.09 18088.10,42345.31" bidi="124262124">
        <lane id="-124262124_0" index="0" allow="rail" speed="44.44" length="520.90" shape="17820.52,42533.58 18077.58,42416.09 18087.45,42349.71">
            <param key="origId" value="124262124"/>
        </lane>
        <param key="electrified" value="no"/>
        <param key="gauge" value="1435"/>
        <param key="operator" value="DB Netz AG"/>
        <param key="railway" value="rail"/>
        <param key="railway:etcs" value="no"/>
        <param key="railway:gnt" value="no"/>
        <param key="railway:lzb" value="no"/>
        <param key="railway:pzb" value="no"/>
        <param key="service" value="yard"/>
        <param key="workrules" value="DE:EBO"/>
    </edge>
    <edge id="-124264571" from="1383506183" to="1383506147" priority="20" type="railway.rail" spreadType="center" length="211.22" shape="17673.69,42292.83 17740.84,42262.14 17767.34,42272.01" bidi="124264571">
        <lane id="-124264571_0" index="0" allow="rail" speed="44.44" length="211.22" shape="17673.69,42292.83 17740.84,42262.14 17762.31,42270.14">
            <param key="origId" value="124264571"/>
        </lane>
        <param key="electrified" value="no"/>
        <param key="gauge" value="1435"/>
        <param key="operator" value="DB Netz AG"/>
        <param key="railway" value="rail"/>
        <param key="railway:etcs" value="no"/>
        <param key="railway:gnt" value="no"/>
        <param key="railway:lzb" value="no"/>