<?xml version="1.0" encoding="UTF-8"?>

<!-- generated on Mi 21 Nov 2018 16:05:34 CET by Eclipse SUMO netedit Version v1_0_1+0726-00a3d57
<configuration xmlns:xsi="http://www.w3.org/2001/XMLSchema-instance" xsi:noNamespaceSchemaLocation="http://sumo.dlr.de/xsd/netconvertConfiguration.xsd">

    <input>
        <sumo-net-file value="input_net.net.xml"/>
    </input>

    <output>
        <output-file value="input_net.net.xml"/>
    </output>

    <processing>
        <offset.disable-normalization value="true"/>
        <lefthand value="false"/>
    </processing>

    <junctions>
        <no-internal-links value="true"/>
        <no-turnarounds value="true"/>
        <junctions.corner-detail value="5"/>
        <junctions.limit-turn-speed value="5.5"/>
        <rectangular-lane-cut value="false"/>
    </junctions>

    <pedestrian>
        <walkingareas value="false"/>
    </pedestrian>

</configuration>
-->

<net version="1.0" junctionCornerDetail="5" limitTurnSpeed="5.50" xmlns:xsi="http://www.w3.org/2001/XMLSchema-instance" xsi:noNamespaceSchemaLocation="http://sumo.dlr.de/xsd/net_file.xsd">

    <location netOffset="-608914.17,-5794541.57" convBoundary="8760.67,1870.41,9036.98,2546.10" origBoundary="10.590361,52.282711,10.759514,52.390266" projParameter="+proj=utm +zone=32 +ellps=WGS84 +datum=WGS84 +units=m +no_defs"/>

    <type id="highway.motorway_link" priority="12" numLanes="1" speed="22.22" allow="private emergency authority army vip passenger hov taxi bus coach delivery truck trailer motorcycle evehicle custom1 custom2" oneway="1"/>

    <edge id="in0" from="261039235" to="34483418" priority="12" type="highway.motorway_link" spreadType="center" shape="8877.36,2191.45 8908.91,2191.37 8923.22,2188.14 8935.91,2182.62 8946.03,2174.80 8953.45,2165.95 8958.75,2156.02 8962.83,2143.77 8963.87,2130.13 8962.08,2117.98 8957.57,2106.22 8951.34,2096.77 8942.36,2087.76 8931.30,2080.23 8917.49,2074.84 8902.97,2073.07 8889.55,2075.20 8877.97,2079.40 8865.83,2086.45 8856.22,2096.13 8849.30,2107.59 8844.73,2120.34 8844.46,2147.53">
        <lane id="in0_0" index="0" allow="private emergency authority army vip passenger hov taxi bus coach delivery truck trailer motorcycle evehicle custom1 custom2" speed="83.33" length="323.93" shape="8876.89,2191.45 8908.91,2191.37 8923.22,2188.14 8935.91,2182.62 8946.03,2174.80 8953.45,2165.95 8958.75,2156.02 8962.83,2143.77 8963.87,2130.13 8962.08,2117.98 8957.57,2106.22 8951.34,2096.77 8942.36,2087.76 8931.30,2080.23 8917.49,2074.84 8902.97,2073.07 8889.55,2075.20 8877.97,2079.40 8865.83,2086.45 8856.22,2096.13 8849.30,2107.59 8844.73,2120.34 8844.50,2143.28">
            <param key="origId" value="24030148"/>
        </lane>
    </edge>
    <edge id="in1" from="261039247" to="34483418" priority="12" type="highway.motorway_link" spreadType="center" shape="8760.67,1870.41 8813.91,2054.40 8841.39,2148.43">
        <lane id="in1_0" index="0" allow="private emergency authority army vip passenger hov taxi bus coach delivery truck trailer motorcycle evehicle custom1 custom2" speed="83.33" length="289.50" shape="8760.67,1870.41 8813.91,2054.40 8840.20,2144.36">
            <param key="origId" value="225766718"/>
        </lane>
    </edge>
    <edge id="mid" from="34483418" to="34483419" priority="12" type="highway.motorway_link" spreadType="center" shape="8842.93,2147.98 8847.58,2164.04 8870.80,2253.36 8893.73,2342.34">
        <lane id="mid_0" index="0" allow="private emergency authority army vip passenger hov taxi bus coach delivery truck trailer motorcycle evehicle custom1 custom2" speed="83.33" length="201.50" acceleration="1" shape="8845.64,2151.58 8849.12,2163.62 8872.35,2252.96 8894.29,2338.10">
            <param key="origId" value="32933156 24062460 24062463"/>
        </lane>
        <lane id="mid_1" index="1" allow="private emergency authority army vip passenger hov taxi bus coach delivery truck trailer motorcycle evehicle custom1 custom2" speed="83.33" length="201.50" shape="8842.56,2152.47 8846.04,2164.46 8869.25,2253.76 8891.19,2338.90">
            <param key="origId" value="32933156 24062460 24062463"/>
        </lane>
    </edge>
    <edge id="out0" from="34483419" to="261039191" priority="12" type="highway.motorway_link" spreadType="center" shape="8895.28,2341.94 8897.36,2349.14 8901.55,2360.53 8907.57,2370.77 8916.30,2380.64 8927.30,2388.13 8937.39,2391.78 8948.85,2393.11 8960.50,2392.08 8968.80,2389.16 8976.58,2385.60 8988.83,2376.29 9023.26,2343.06 9029.37,2335.29 9034.43,2326.34 9036.98,2316.18 9036.80,2305.39 9034.66,2296.67 9029.79,2288.51 9020.58,2279.12 9010.41,2272.74 8982.53,2262.80">
        <lane id="out0_0" index="0" allow="private emergency authority army vip passenger hov taxi bus coach delivery truck trailer motorcycle evehicle custom1 custom2" speed="83.33" length="288.68" shape="8896.38,2345.75 8897.36,2349.14 8901.55,2360.53 8907.57,2370.77 8916.30,2380.64 8927.30,2388.13 8937.39,2391.78 8948.85,2393.11 8960.50,2392.08 8968.80,2389.16 8976.58,2385.60 8988.83,2376.29 9023.26,2343.06 9029.37,2335.29 9034.43,2326.34 9036.98,2316.18 9036.80,2305.39 9034.66,2296.67 9029.79,2288.51 9020.58,2279.12 9010.41,2272.74 8982.29,2262.71">
            <param key="origId" value="24030136"/>
        </lane>
    </edge>
    <edge id="out1" from="34483419" to="26305373" priority="12" type="highway.motorway_link" spreadType="center">
        <lane id="out1_0" index="0" allow="private emergency authority army vip passenger hov taxi bus coach delivery truck trailer motorcycle evehicle custom1 custom2" speed="83.33" length="210.46" shape="8893.22,2346.66 8946.39,2546.10">
            <param key="origId" value="45515620"/>
        </lane>
    </edge>

    <junction id="261039191" type="dead_end" x="8983.36" y="2259.71" incLanes="out0_0" intLanes="" shape="8981.75,2264.22 8982.83,2261.21"/>
    <junction id="261039235" type="dead_end" x="8876.90" y="2194.62" incLanes="" intLanes="" shape="8876.90,2193.05 8876.89,2189.85"/>
    <junction id="261039247" type="dead_end" x="8760.67" y="1870.41" incLanes="" intLanes="" shape="8759.13,1870.85 8762.21,1869.97"/>
    <junction id="26305373" type="dead_end" x="8946.39" y="2546.10" incLanes="out1_0" intLanes="" shape="8947.94,2545.69 8944.84,2546.51"/>
    <junction id="34483418" type="priority" x="8841.39" y="2148.43" incLanes="in0_0 in1_0" intLanes="" shape="8841.03,2152.91 8847.17,2151.13 8846.40,2148.29 8846.21,2147.27 8846.12,2146.24 8846.09,2144.98 8846.10,2143.29 8842.90,2143.26 8841.74,2143.91 8838.66,2144.81">
        <request index="0" response="00" foes="00"/>
        <request index="1" response="00" foes="00"/>
    </junction>
    <junction id="34483419" type="priority" x="8892.18" y="2342.74" incLanes="mid_0 mid_1" intLanes="" shape="8891.69,2347.10 8897.92,2345.30 8895.84,2337.70 8889.64,2339.30">
        <request index="0" response="00" foes="00"/>
        <request index="1" response="00" foes="00"/>
    </junction>

    <connection from="in0" to="mid" fromLane="0" toLane="0" dir="s" state="M"/>
    <connection from="in1" to="mid" fromLane="0" toLane="1" dir="s" state="M"/>
    <connection from="mid" to="out0" fromLane="0" toLane="0" dir="s" state="M"/>
    <connection from="mid" to="out1" fromLane="1" toLane="0" dir="s" state="M"/>

</net>
