<?xml version="1.0" encoding="UTF-8"?>

<!-- generated on 23.03.2021 09:54:46 by Eclipse SUMO netedit Version v1_8_0+1744-662ff8fcc3
<configuration xmlns:xsi="http://www.w3.org/2001/XMLSchema-instance" xsi:noNamespaceSchemaLocation="http://sumo.dlr.de/xsd/netconvertConfiguration.xsd">

    <output>
        <output-file value="D:\Bug\net.net.xml"/>
    </output>

    <processing>
        <offset.disable-normalization value="true"/>
    </processing>

    <junctions>
        <no-turnarounds value="true"/>
    </junctions>

    <report>
        <aggregate-warnings value="5"/>
    </report>

</configuration>
-->

<net version="1.9" junctionCornerDetail="5" limitTurnSpeed="5.50" xmlns:xsi="http://www.w3.org/2001/XMLSchema-instance" xsi:noNamespaceSchemaLocation="http://sumo.dlr.de/xsd/net_file.xsd">

    <location netOffset="0.00,0.00" convBoundary="0.00,50.00,60.00,70.00" origBoundary="10000000000.00,10000000000.00,-10000000000.00,-10000000000.00" projParameter="!"/>

    <edge id=":gneJ1_0" function="internal">
        <lane id=":gneJ1_0_0" index="0" speed="3.90" length="2.58" shape="30.00,48.40 30.70,48.50 31.20,48.80 31.50,49.30 31.60,50.00"/>
    </edge>
    <edge id=":gneJ2_0" function="internal">
        <lane id=":gneJ2_0_0" index="0" speed="3.90" length="2.58" shape="31.60,66.80 31.70,67.50 32.00,68.00 32.50,68.30 33.20,68.40"/>
    </edge>

    <edge id="gneE0" from="gneJ0" to="gneJ1" priority="-1">
        <lane id="gneE0_0" index="0" speed="13.89" length="30.00" shape="0.00,48.40 30.00,48.40"/>
    </edge>
    <edge id="gneE1" from="gneJ1" to="gneJ2" priority="-1">
        <lane id="gneE1_0" index="0" speed="13.89" length="16.80" shape="31.60,50.00 31.60,66.80"/>
    </edge>
    <edge id="gneE2" from="gneJ2" to="gneJ3" priority="-1">
        <lane id="gneE2_0" index="0" speed="13.89" length="26.80" shape="33.20,68.40 60.00,68.40"/>
    </edge>

    <junction id="gneJ0" type="dead_end" x="0.00" y="50.00" incLanes="" intLanes="" shape="0.00,50.00 0.00,46.80"/>
    <junction id="gneJ1" type="priority" x="30.00" y="50.00" incLanes="gneE0_0" intLanes=":gneJ1_0_0" shape="30.00,50.00 33.20,50.00 32.84,48.22 32.40,47.60 31.78,47.16 30.98,46.89 30.00,46.80">
        <request index="0" response="0" foes="0" cont="0"/>
    </junction>
    <junction id="gneJ2" type="priority" x="30.00" y="70.00" incLanes="gneE1_0" intLanes=":gneJ2_0_0" shape="33.20,70.00 33.20,66.80 30.00,66.80 30.36,68.58 30.80,69.20 31.42,69.64 32.22,69.91">
        <request index="0" response="0" foes="0" cont="0"/>
    </junction>
    <junction id="gneJ3" type="dead_end" x="60.00" y="70.00" incLanes="gneE2_0" intLanes="" shape="60.00,66.80 60.00,70.00"/>

    <connection from="gneE0" to="gneE1" fromLane="0" toLane="0" via=":gneJ1_0_0" dir="l" state="M"/>
    <connection from="gneE1" to="gneE2" fromLane="0" toLane="0" via=":gneJ2_0_0" dir="r" state="M"/>

    <connection from=":gneJ1_0" to="gneE1" fromLane="0" toLane="0" dir="l" state="M"/>
    <connection from=":gneJ2_0" to="gneE2" fromLane="0" toLane="0" dir="r" state="M"/>

</net>
