<additional xmlns:xsi="http://www.w3.org/2001/XMLSchema-instance" xsi:noNamespaceSchemaLocation="http://sumo.dlr.de/xsd/additional_file.xsd">

	<edgeData id="dump_15" file="aggregated_15.xml" excludeEmpty="true" begin="15" end="30"/>

</additional>
