<?xml version="1.0" encoding="UTF-8"?>

<!-- generated on 2025-03-06 09:51:46 by Eclipse SUMO netconvert Version v1_22_0+0676-78a4744cd26
This data file and the accompanying materials
are made available under the terms of the Eclipse Public License v2.0
which accompanies this distribution, and is available at
http://www.eclipse.org/legal/epl-v20.html
This file may also be made available under the following Secondary
Licenses when the conditions for such availability set forth in the Eclipse
Public License 2.0 are satisfied: GNU General Public License, version 2
or later which is available at
https://www.gnu.org/licenses/old-licenses/gpl-2.0-standalone.html
SPDX-License-Identifier: EPL-2.0 OR GPL-2.0-or-later
<netconvertConfiguration xmlns:xsi="http://www.w3.org/2001/XMLSchema-instance" xsi:noNamespaceSchemaLocation="http://sumo.dlr.de/xsd/netconvertConfiguration.xsd">

    <input>
        <node-files value="input_plain.nod.xml"/>
        <edge-files value="input_plain.edg.xml"/>
    </input>

    <output>
        <write-license value="true"/>
        <output-file value="net.net.xml"/>
    </output>

    <junctions>
        <no-internal-links value="true"/>
        <no-turnarounds value="true"/>
    </junctions>

    <report>
        <xml-validation value="never"/>
    </report>

</netconvertConfiguration>
-->

<net version="1.20" junctionCornerDetail="5" limitTurnSpeed="5.50" xmlns:xsi="http://www.w3.org/2001/XMLSchema-instance" xsi:noNamespaceSchemaLocation="http://sumo.dlr.de/xsd/net_file.xsd">

    <location netOffset="0.00,2.67" convBoundary="0.00,0.00,182.80,14.58" origBoundary="-10000000000.00,-10000000000.00,10000000000.00,10000000000.00" projParameter="!"/>

    <edge id="E0" from="J0" to="J1" priority="-1">
        <lane id="E0_0" index="0" speed="13.89" length="100.00" shape="0.00,-2.13 96.00,-2.13"/>
        <lane id="E0_1" index="1" allow="bus" speed="13.89" length="100.00" shape="0.00,1.07 96.00,1.07"/>
    </edge>
    <edge id="E1" from="J1" to="J2" priority="-1">
        <lane id="E1_0" index="0" speed="13.89" length="82.84" shape="121.99,-2.84 182.65,-4.80"/>
        <lane id="E1_1" index="1" speed="13.89" length="82.84" shape="122.09,0.36 182.75,-1.60"/>
    </edge>
    <edge id="E2" from="J1" to="J3" priority="-1">
        <lane id="E2_0" index="0" allow="bus" speed="13.89" length="82.45" shape="121.87,4.25 181.82,13.00"/>
    </edge>

    <junction id="J0" type="dead_end" x="0.00" y="2.67" incLanes="" intLanes="" shape="0.00,2.67 0.00,-3.73"/>
    <junction id="J1" type="priority" x="100.00" y="2.67" incLanes="E0_0 E0_1" intLanes="" shape="121.64,5.83 122.10,2.66 122.14,1.96 121.94,-4.44 96.00,-3.73 96.00,2.67 101.50,2.77 105.55,3.07 108.87,3.55 116.20,4.95">
        <request index="0" response="000" foes="000"/>
        <request index="1" response="000" foes="000"/>
        <request index="2" response="000" foes="000"/>
    </junction>
    <junction id="J2" type="dead_end" x="182.80" y="0.00" incLanes="E1_0 E1_1" intLanes="" shape="182.59,-6.40 182.80,0.00"/>
    <junction id="J3" type="dead_end" x="181.59" y="14.58" incLanes="E2_0" intLanes="" shape="182.05,11.41 181.59,14.58"/>

    <connection from="E0" to="E1" fromLane="0" toLane="0" dir="s" state="M"/>
    <connection from="E0" to="E1" fromLane="1" toLane="1" dir="s" state="M"/>
    <connection from="E0" to="E2" fromLane="1" toLane="0" dir="L" state="M"/>

</net>
