<?xml version="1.0" encoding="UTF-8"?>

<!-- generated on Tue May 15 23:50:42 2018 by Eclipse SUMO netgenerate Version 6ca354f
This data file and the accompanying materials
are made available under the terms of the Eclipse Public License v2.0
which accompanies this distribution, and is available at
http://www.eclipse.org/legal/epl-v20.html
SPDX-License-Identifier: EPL-2.0
<configuration xmlns:xsi="http://www.w3.org/2001/XMLSchema-instance" xsi:noNamespaceSchemaLocation="http://sumo.dlr.de/xsd/netgenerateConfiguration.xsd">

    <random_network>
        <rand value="true"/>
        <rand.iterations value="200"/>
        <rand.max-distance value="100"/>
        <rand.min-distance value="100"/>
        <rand.grid value="true"/>
    </random_network>

    <output>
        <write-license value="true"/>
        <output-file value="net.net.xml"/>
    </output>

    <report>
        <xml-validation value="never"/>
    </report>

</configuration>
-->

<net version="0.27" xmlns:xsi="http://www.w3.org/2001/XMLSchema-instance" xsi:noNamespaceSchemaLocation="http://sumo.dlr.de/xsd/net_file.xsd">

    <location netOffset="900.00,1000.00" convBoundary="0.00,0.00,1900.00,1800.00" origBoundary="-900.00,-1000.00,1000.00,800.00" projParameter="!"/>

    <edge id=":1_0" function="internal">
        <lane id=":1_0_0" index="0" speed="13.90" length="5.00" shape="898.40,1004.70 898.21,1003.34 897.62,1002.38 896.66,1001.79 895.30,1001.60"/>
    </edge>
    <edge id=":1_1" function="internal">
        <lane id=":1_1_0" index="0" speed="13.90" length="9.40" shape="898.40,1004.70 898.40,995.30"/>
    </edge>
    <edge id=":1_2" function="internal">
        <lane id=":1_2_0" index="0" speed="13.90" length="5.08" shape="898.40,1004.70 898.79,1001.94 899.97,999.98"/>
    </edge>
    <edge id=":1_3" function="internal">
        <lane id=":1_3_0" index="0" speed="13.90" length="2.34" shape="898.40,1004.70 899.20,1003.50 900.00,1003.10"/>
    </edge>
    <edge id=":1_16" function="internal">
        <lane id=":1_16_0" index="0" speed="13.90" length="5.08" shape="899.97,999.98 901.94,998.79 904.70,998.40"/>
    </edge>
    <edge id=":1_17" function="internal">
        <lane id=":1_17_0" index="0" speed="13.90" length="2.34" shape="900.00,1003.10 900.80,1003.50 901.60,1004.70"/>
    </edge>
    <edge id=":1_4" function="internal">
        <lane id=":1_4_0" index="0" speed="13.90" length="5.00" shape="904.70,1001.60 903.34,1001.79 902.38,1002.38 901.79,1003.34 901.60,1004.70"/>
    </edge>
    <edge id=":1_5" function="internal">
        <lane id=":1_5_0" index="0" speed="13.90" length="9.40" shape="904.70,1001.60 895.30,1001.60"/>
    </edge>
    <edge id=":1_6" function="internal">
        <lane id=":1_6_0" index="0" speed="13.90" length="10.16" shape="904.70,1001.60 901.94,1001.21 899.98,1000.03 898.79,998.06 898.40,995.30"/>
    </edge>
    <edge id=":1_7" function="internal">
        <lane id=":1_7_0" index="0" speed="13.90" length="4.67" shape="904.70,1001.60 903.50,1000.80 903.10,1000.00 903.50,999.20 904.70,998.40"/>
    </edge>
    <edge id=":1_8" function="internal">
        <lane id=":1_8_0" index="0" speed="13.90" length="5.00" shape="901.60,995.30 901.79,996.66 902.38,997.62 903.34,998.21 904.70,998.40"/>
    </edge>
    <edge id=":1_9" function="internal">
        <lane id=":1_9_0" index="0" speed="13.90" length="9.40" shape="901.60,995.30 901.60,1004.70"/>
    </edge>
    <edge id=":1_10" function="internal">
        <lane id=":1_10_0" index="0" speed="13.90" length="5.08" shape="901.60,995.30 901.21,998.06 900.03,1000.02"/>
    </edge>
    <edge id=":1_11" function="internal">
        <lane id=":1_11_0" index="0" speed="13.90" length="2.34" shape="901.60,995.30 900.80,996.50 900.00,996.90"/>
    </edge>
    <edge id=":1_18" function="internal">
        <lane id=":1_18_0" index="0" speed="13.90" length="5.08" shape="900.03,1000.02 898.06,1001.21 895.30,1001.60"/>
    </edge>
    <edge id=":1_19" function="internal">
        <lane id=":1_19_0" index="0" speed="13.90" length="2.34" shape="900.00,996.90 899.20,996.50 898.40,995.30"/>
    </edge>
    <edge id=":1_12" function="internal">
        <lane id=":1_12_0" index="0" speed="13.90" length="5.00" shape="895.30,998.40 896.66,998.21 897.62,997.62 898.21,996.66 898.40,995.30"/>
    </edge>
    <edge id=":1_13" function="internal">
        <lane id=":1_13_0" index="0" speed="13.90" length="9.40" shape="895.30,998.40 904.70,998.40"/>
    </edge>
    <edge id=":1_14" function="internal">
        <lane id=":1_14_0" index="0" speed="13.90" length="10.16" shape="895.30,998.40 898.06,998.79 900.02,999.97 901.21,1001.94 901.60,1004.70"/>
    </edge>
    <edge id=":1_15" function="internal">
        <lane id=":1_15_0" index="0" speed="13.90" length="4.67" shape="895.30,998.40 896.50,999.20 896.90,1000.00 896.50,1000.80 895.30,1001.60"/>
    </edge>
    <edge id=":10_0" function="internal">
        <lane id=":10_0_0" index="0" speed="13.90" length="5.00" shape="798.40,1004.70 798.21,1003.34 797.62,1002.38 796.66,1001.79 795.30,1001.60"/>
    </edge>
    <edge id=":10_1" function="internal">
        <lane id=":10_1_0" index="0" speed="13.90" length="9.40" shape="798.40,1004.70 798.40,995.30"/>
    </edge>
    <edge id=":10_2" function="internal">
        <lane id=":10_2_0" index="0" speed="13.90" length="5.08" shape="798.40,1004.70 798.79,1001.94 799.97,999.98"/>
    </edge>
    <edge id=":10_3" function="internal">
        <lane id=":10_3_0" index="0" speed="13.90" length="2.34" shape="798.40,1004.70 799.20,1003.50 800.00,1003.10"/>
    </edge>
    <edge id=":10_16" function="internal">
        <lane id=":10_16_0" index="0" speed="13.90" length="5.08" shape="799.97,999.98 801.94,998.79 804.70,998.40"/>
    </edge>
    <edge id=":10_17" function="internal">
        <lane id=":10_17_0" index="0" speed="13.90" length="2.34" shape="800.00,1003.10 800.80,1003.50 801.60,1004.70"/>
    </edge>
    <edge id=":10_4" function="internal">
        <lane id=":10_4_0" index="0" speed="13.90" length="5.00" shape="804.70,1001.60 803.34,1001.79 802.38,1002.38 801.79,1003.34 801.60,1004.70"/>
    </edge>
    <edge id=":10_5" function="internal">
        <lane id=":10_5_0" index="0" speed="13.90" length="9.40" shape="804.70,1001.60 795.30,1001.60"/>
    </edge>
    <edge id=":10_6" function="internal">
        <lane id=":10_6_0" index="0" speed="13.90" length="10.16" shape="804.70,1001.60 801.94,1001.21 799.98,1000.03 798.79,998.06 798.40,995.30"/>
    </edge>
    <edge id=":10_7" function="internal">
        <lane id=":10_7_0" index="0" speed="13.90" length="4.67" shape="804.70,1001.60 803.50,1000.80 803.10,1000.00 803.50,999.20 804.70,998.40"/>
    </edge>
    <edge id=":10_8" function="internal">
        <lane id=":10_8_0" index="0" speed="13.90" length="5.00" shape="801.60,995.30 801.79,996.66 802.38,997.62 803.34,998.21 804.70,998.40"/>
    </edge>
    <edge id=":10_9" function="internal">
        <lane id=":10_9_0" index="0" speed="13.90" length="9.40" shape="801.60,995.30 801.60,1004.70"/>
    </edge>
    <edge id=":10_10" function="internal">
        <lane id=":10_10_0" index="0" speed="13.90" length="5.08" shape="801.60,995.30 801.21,998.06 800.03,1000.02"/>
    </edge>
    <edge id=":10_11" function="internal">
        <lane id=":10_11_0" index="0" speed="13.90" length="2.34" shape="801.60,995.30 800.80,996.50 800.00,996.90"/>
    </edge>
    <edge id=":10_18" function="internal">
        <lane id=":10_18_0" index="0" speed="13.90" length="5.08" shape="800.03,1000.02 798.06,1001.21 795.30,1001.60"/>
    </edge>
    <edge id=":10_19" function="internal">
        <lane id=":10_19_0" index="0" speed="13.90" length="2.34" shape="800.00,996.90 799.20,996.50 798.40,995.30"/>
    </edge>
    <edge id=":10_12" function="internal">
        <lane id=":10_12_0" index="0" speed="13.90" length="5.00" shape="795.30,998.40 796.66,998.21 797.62,997.62 798.21,996.66 798.40,995.30"/>
    </edge>
    <edge id=":10_13" function="internal">
        <lane id=":10_13_0" index="0" speed="13.90" length="9.40" shape="795.30,998.40 804.70,998.40"/>
    </edge>
    <edge id=":10_14" function="internal">
        <lane id=":10_14_0" index="0" speed="13.90" length="10.16" shape="795.30,998.40 798.06,998.79 800.02,999.97 801.21,1001.94 801.60,1004.70"/>
    </edge>
    <edge id=":10_15" function="internal">
        <lane id=":10_15_0" index="0" speed="13.90" length="4.67" shape="795.30,998.40 796.50,999.20 796.90,1000.00 796.50,1000.80 795.30,1001.60"/>
    </edge>
    <edge id=":1009_0" function="internal">
        <lane id=":1009_0_0" index="0" speed="13.90" length="9.40" shape="1198.40,804.70 1198.40,795.30"/>
    </edge>
    <edge id=":1009_1" function="internal">
        <lane id=":1009_1_0" index="0" speed="13.90" length="5.08" shape="1198.40,804.70 1198.79,801.94 1199.97,799.98"/>
    </edge>
    <edge id=":1009_2" function="internal">
        <lane id=":1009_2_0" index="0" speed="13.90" length="2.34" shape="1198.40,804.70 1199.20,803.50 1200.00,803.10"/>
    </edge>
    <edge id=":1009_9" function="internal">
        <lane id=":1009_9_0" index="0" speed="13.90" length="5.08" shape="1199.97,799.98 1201.94,798.79 1204.70,798.40"/>
    </edge>
    <edge id=":1009_10" function="internal">
        <lane id=":1009_10_0" index="0" speed="13.90" length="2.34" shape="1200.00,803.10 1200.80,803.50 1201.60,804.70"/>
    </edge>
    <edge id=":1009_3" function="internal">
        <lane id=":1009_3_0" index="0" speed="13.90" length="5.00" shape="1204.70,801.60 1203.34,801.79 1202.38,802.38 1201.79,803.34 1201.60,804.70"/>
    </edge>
    <edge id=":1009_4" function="internal">
        <lane id=":1009_4_0" index="0" speed="13.90" length="10.16" shape="1204.70,801.60 1201.94,801.21 1199.97,800.03 1198.79,798.06 1198.40,795.30"/>
    </edge>
    <edge id=":1009_5" function="internal">
        <lane id=":1009_5_0" index="0" speed="13.90" length="4.67" shape="1204.70,801.60 1203.50,800.80 1203.10,800.00 1203.50,799.20 1204.70,798.40"/>
    </edge>
    <edge id=":1009_6" function="internal">
        <lane id=":1009_6_0" index="0" speed="13.90" length="5.00" shape="1201.60,795.30 1201.79,796.66 1202.38,797.62 1203.34,798.21 1204.70,798.40"/>
    </edge>
    <edge id=":1009_7" function="internal">
        <lane id=":1009_7_0" index="0" speed="13.90" length="9.40" shape="1201.60,795.30 1201.60,804.70"/>
    </edge>
    <edge id=":1009_8" function="internal">
        <lane id=":1009_8_0" index="0" speed="13.90" length="2.34" shape="1201.60,795.30 1200.80,796.50 1200.00,796.90"/>
    </edge>
    <edge id=":1009_11" function="internal">
        <lane id=":1009_11_0" index="0" speed="13.90" length="2.34" shape="1200.00,796.90 1199.20,796.50 1198.40,795.30"/>
    </edge>
    <edge id=":1015_0" function="internal">
        <lane id=":1015_0_0" index="0" speed="13.90" length="9.40" shape="1304.70,701.60 1295.30,701.60"/>
    </edge>
    <edge id=":1015_1" function="internal">
        <lane id=":1015_1_0" index="0" speed="13.90" length="5.08" shape="1304.70,701.60 1301.94,701.21 1299.97,700.03"/>
    </edge>
    <edge id=":1015_2" function="internal">
        <lane id=":1015_2_0" index="0" speed="13.90" length="2.34" shape="1304.70,701.60 1303.50,700.80 1303.10,700.00"/>
    </edge>
    <edge id=":1015_9" function="internal">
        <lane id=":1015_9_0" index="0" speed="13.90" length="5.08" shape="1299.97,700.03 1298.79,698.06 1298.40,695.30"/>
    </edge>
    <edge id=":1015_10" function="internal">
        <lane id=":1015_10_0" index="0" speed="13.90" length="2.34" shape="1303.10,700.00 1303.50,699.20 1304.70,698.40"/>
    </edge>
    <edge id=":1015_3" function="internal">
        <lane id=":1015_3_0" index="0" speed="13.90" length="5.00" shape="1301.60,695.30 1301.79,696.66 1302.38,697.62 1303.34,698.21 1304.70,698.40"/>
    </edge>
    <edge id=":1015_4" function="internal">
        <lane id=":1015_4_0" index="0" speed="13.90" length="10.16" shape="1301.60,695.30 1301.21,698.06 1300.03,700.02 1298.06,701.21 1295.30,701.60"/>
    </edge>
    <edge id=":1015_5" function="internal">
        <lane id=":1015_5_0" index="0" speed="13.90" length="4.67" shape="1301.60,695.30 1300.80,696.50 1300.00,696.90 1299.20,696.50 1298.40,695.30"/>
    </edge>
    <edge id=":1015_6" function="internal">
        <lane id=":1015_6_0" index="0" speed="13.90" length="5.00" shape="1295.30,698.40 1296.66,698.21 1297.62,697.62 1298.21,696.66 1298.40,695.30"/>
    </edge>
    <edge id=":1015_7" function="internal">
        <lane id=":1015_7_0" index="0" speed="13.90" length="9.40" shape="1295.30,698.40 1304.70,698.40"/>
    </edge>
    <edge id=":1015_8" function="internal">
        <lane id=":1015_8_0" index="0" speed="13.90" length="2.34" shape="1295.30,698.40 1296.50,699.20 1296.90,700.00"/>
    </edge>
    <edge id=":1015_11" function="internal">
        <lane id=":1015_11_0" index="0" speed="13.90" length="2.34" shape="1296.90,700.00 1296.50,700.80 1295.30,701.60"/>
    </edge>
    <edge id=":1021_0" function="internal">
        <lane id=":1021_0_0" index="0" speed="13.90" length="5.00" shape="1198.40,604.70 1198.21,603.34 1197.62,602.38 1196.66,601.79 1195.30,601.60"/>
    </edge>
    <edge id=":1021_1" function="internal">
        <lane id=":1021_1_0" index="0" speed="13.90" length="9.40" shape="1198.40,604.70 1198.40,595.30"/>
    </edge>
    <edge id=":1021_2" function="internal">
        <lane id=":1021_2_0" index="0" speed="13.90" length="5.08" shape="1198.40,604.70 1198.79,601.94 1199.97,599.98"/>
    </edge>
    <edge id=":1021_3" function="internal">
        <lane id=":1021_3_0" index="0" speed="13.90" length="2.34" shape="1198.40,604.70 1199.20,603.50 1200.00,603.10"/>
    </edge>
    <edge id=":1021_16" function="internal">
        <lane id=":1021_16_0" index="0" speed="13.90" length="5.08" shape="1199.97,599.98 1201.94,598.79 1204.70,598.40"/>
    </edge>
    <edge id=":1021_17" function="internal">
        <lane id=":1021_17_0" index="0" speed="13.90" length="2.34" shape="1200.00,603.10 1200.80,603.50 1201.60,604.70"/>
    </edge>
    <edge id=":1021_4" function="internal">
        <lane id=":1021_4_0" index="0" speed="13.90" length="5.00" shape="1204.70,601.60 1203.34,601.79 1202.38,602.38 1201.79,603.34 1201.60,604.70"/>
    </edge>
    <edge id=":1021_5" function="internal">
        <lane id=":1021_5_0" index="0" speed="13.90" length="9.40" shape="1204.70,601.60 1195.30,601.60"/>
    </edge>
    <edge id=":1021_6" function="internal">
        <lane id=":1021_6_0" index="0" speed="13.90" length="10.16" shape="1204.70,601.60 1201.94,601.21 1199.97,600.03 1198.79,598.06 1198.40,595.30"/>
    </edge>
    <edge id=":1021_7" function="internal">
        <lane id=":1021_7_0" index="0" speed="13.90" length="4.67" shape="1204.70,601.60 1203.50,600.80 1203.10,600.00 1203.50,599.20 1204.70,598.40"/>
    </edge>
    <edge id=":1021_8" function="internal">
        <lane id=":1021_8_0" index="0" speed="13.90" length="5.00" shape="1201.60,595.30 1201.79,596.66 1202.38,597.62 1203.34,598.21 1204.70,598.40"/>
    </edge>
    <edge id=":1021_9" function="internal">
        <lane id=":1021_9_0" index="0" speed="13.90" length="9.40" shape="1201.60,595.30 1201.60,604.70"/>
    </edge>
    <edge id=":1021_10" function="internal">
        <lane id=":1021_10_0" index="0" speed="13.90" length="5.08" shape="1201.60,595.30 1201.21,598.06 1200.03,600.02"/>
    </edge>
    <edge id=":1021_11" function="internal">
        <lane id=":1021_11_0" index="0" speed="13.90" length="2.34" shape="1201.60,595.30 1200.80,596.50 1200.00,596.90"/>
    </edge>
    <edge id=":1021_18" function="internal">
        <lane id=":1021_18_0" index="0" speed="13.90" length="5.08" shape="1200.03,600.02 1198.06,601.21 1195.30,601.60"/>
    </edge>
    <edge id=":1021_19" function="internal">
        <lane id=":1021_19_0" index="0" speed="13.90" length="2.34" shape="1200.00,596.90 1199.20,596.50 1198.40,595.30"/>
    </edge>
    <edge id=":1021_12" function="internal">
        <lane id=":1021_12_0" index="0" speed="13.90" length="5.00" shape="1195.30,598.40 1196.66,598.21 1197.62,597.62 1198.21,596.66 1198.40,595.30"/>
    </edge>
    <edge id=":1021_13" function="internal">
        <lane id=":1021_13_0" index="0" speed="13.90" length="9.40" shape="1195.30,598.40 1204.70,598.40"/>
    </edge>
    <edge id=":1021_14" function="internal">
        <lane id=":1021_14_0" index="0" speed="13.90" length="10.16" shape="1195.30,598.40 1198.06,598.79 1200.03,599.97 1201.21,601.94 1201.60,604.70"/>
    </edge>
    <edge id=":1021_15" function="internal">
        <lane id=":1021_15_0" index="0" speed="13.90" length="4.67" shape="1195.30,598.40 1196.50,599.20 1196.90,600.00 1196.50,600.80 1195.30,601.60"/>
    </edge>
    <edge id=":1129_0" function="internal">
        <lane id=":1129_0_0" index="0" speed="13.90" length="5.00" shape="698.40,804.70 698.21,803.34 697.62,802.38 696.66,801.79 695.30,801.60"/>
    </edge>
    <edge id=":1129_1" function="internal">
        <lane id=":1129_1_0" index="0" speed="13.90" length="9.40" shape="698.40,804.70 698.40,795.30"/>
    </edge>
    <edge id=":1129_2" function="internal">
        <lane id=":1129_2_0" index="0" speed="13.90" length="5.08" shape="698.40,804.70 698.79,801.94 699.97,799.98"/>
    </edge>
    <edge id=":1129_3" function="internal">
        <lane id=":1129_3_0" index="0" speed="13.90" length="2.34" shape="698.40,804.70 699.20,803.50 700.00,803.10"/>
    </edge>
    <edge id=":1129_16" function="internal">
        <lane id=":1129_16_0" index="0" speed="13.90" length="5.08" shape="699.97,799.98 701.94,798.79 704.70,798.40"/>
    </edge>
    <edge id=":1129_17" function="internal">
        <lane id=":1129_17_0" index="0" speed="13.90" length="2.34" shape="700.00,803.10 700.80,803.50 701.60,804.70"/>
    </edge>
    <edge id=":1129_4" function="internal">
        <lane id=":1129_4_0" index="0" speed="13.90" length="5.00" shape="704.70,801.60 703.34,801.79 702.38,802.38 701.79,803.34 701.60,804.70"/>
    </edge>
    <edge id=":1129_5" function="internal">
        <lane id=":1129_5_0" index="0" speed="13.90" length="9.40" shape="704.70,801.60 695.30,801.60"/>
    </edge>
    <edge id=":1129_6" function="internal">
        <lane id=":1129_6_0" index="0" speed="13.90" length="10.16" shape="704.70,801.60 701.94,801.21 699.98,800.03 698.79,798.06 698.40,795.30"/>
    </edge>
    <edge id=":1129_7" function="internal">
        <lane id=":1129_7_0" index="0" speed="13.90" length="4.67" shape="704.70,801.60 703.50,800.80 703.10,800.00 703.50,799.20 704.70,798.40"/>
    </edge>
    <edge id=":1129_8" function="internal">
        <lane id=":1129_8_0" index="0" speed="13.90" length="5.00" shape="701.60,795.30 701.79,796.66 702.38,797.62 703.34,798.21 704.70,798.40"/>
    </edge>
    <edge id=":1129_9" function="internal">
        <lane id=":1129_9_0" index="0" speed="13.90" length="9.40" shape="701.60,795.30 701.60,804.70"/>
    </edge>
    <edge id=":1129_10" function="internal">
        <lane id=":1129_10_0" index="0" speed="13.90" length="5.08" shape="701.60,795.30 701.21,798.06 700.03,800.02"/>
    </edge>
    <edge id=":1129_11" function="internal">
        <lane id=":1129_11_0" index="0" speed="13.90" length="2.34" shape="701.60,795.30 700.80,796.50 700.00,796.90"/>
    </edge>
    <edge id=":1129_18" function="internal">
        <lane id=":1129_18_0" index="0" speed="13.90" length="5.08" shape="700.03,800.02 698.06,801.21 695.30,801.60"/>
    </edge>
    <edge id=":1129_19" function="internal">
        <lane id=":1129_19_0" index="0" speed="13.90" length="2.34" shape="700.00,796.90 699.20,796.50 698.40,795.30"/>
    </edge>
    <edge id=":1129_12" function="internal">
        <lane id=":1129_12_0" index="0" speed="13.90" length="5.00" shape="695.30,798.40 696.66,798.21 697.62,797.62 698.21,796.66 698.40,795.30"/>
    </edge>
    <edge id=":1129_13" function="internal">
        <lane id=":1129_13_0" index="0" speed="13.90" length="9.40" shape="695.30,798.40 704.70,798.40"/>
    </edge>
    <edge id=":1129_14" function="internal">
        <lane id=":1129_14_0" index="0" speed="13.90" length="10.16" shape="695.30,798.40 698.06,798.79 700.02,799.97 701.21,801.94 701.60,804.70"/>
    </edge>
    <edge id=":1129_15" function="internal">
        <lane id=":1129_15_0" index="0" speed="13.90" length="4.67" shape="695.30,798.40 696.50,799.20 696.90,800.00 696.50,800.80 695.30,801.60"/>
    </edge>
    <edge id=":1131_0" function="internal">
        <lane id=":1131_0_0" index="0" speed="13.90" length="5.00" shape="598.40,704.70 598.21,703.34 597.62,702.38 596.66,701.79 595.30,701.60"/>
    </edge>
    <edge id=":1131_1" function="internal">
        <lane id=":1131_1_0" index="0" speed="13.90" length="10.16" shape="598.40,704.70 598.79,701.94 599.97,699.98 601.94,698.79 604.70,698.40"/>
    </edge>
    <edge id=":1131_2" function="internal">
        <lane id=":1131_2_0" index="0" speed="13.90" length="4.67" shape="598.40,704.70 599.20,703.50 600.00,703.10 600.80,703.50 601.60,704.70"/>
    </edge>
    <edge id=":1131_3" function="internal">
        <lane id=":1131_3_0" index="0" speed="13.90" length="5.00" shape="604.70,701.60 603.34,701.79 602.38,702.38 601.79,703.34 601.60,704.70"/>
    </edge>
    <edge id=":1131_4" function="internal">
        <lane id=":1131_4_0" index="0" speed="13.90" length="9.40" shape="604.70,701.60 595.30,701.60"/>
    </edge>
    <edge id=":1131_5" function="internal">
        <lane id=":1131_5_0" index="0" speed="13.90" length="2.34" shape="604.70,701.60 603.50,700.80 603.10,700.00"/>
    </edge>
    <edge id=":1131_9" function="internal">
        <lane id=":1131_9_0" index="0" speed="13.90" length="2.34" shape="603.10,700.00 603.50,699.20 604.70,698.40"/>
    </edge>
    <edge id=":1131_6" function="internal">
        <lane id=":1131_6_0" index="0" speed="13.90" length="9.40" shape="595.30,698.40 604.70,698.40"/>
    </edge>
    <edge id=":1131_7" function="internal">
        <lane id=":1131_7_0" index="0" speed="13.90" length="5.08" shape="595.30,698.40 598.06,698.79 600.02,699.97"/>
    </edge>
    <edge id=":1131_8" function="internal">
        <lane id=":1131_8_0" index="0" speed="13.90" length="2.34" shape="595.30,698.40 596.50,699.20 596.90,700.00"/>
    </edge>
    <edge id=":1131_10" function="internal">
        <lane id=":1131_10_0" index="0" speed="13.90" length="5.08" shape="600.02,699.97 601.21,701.94 601.60,704.70"/>
    </edge>
    <edge id=":1131_11" function="internal">
        <lane id=":1131_11_0" index="0" speed="13.90" length="2.34" shape="596.90,700.00 596.50,700.80 595.30,701.60"/>
    </edge>
    <edge id=":1236_0" function="internal">
        <lane id=":1236_0_0" index="0" speed="13.90" length="5.00" shape="1298.40,1104.70 1298.21,1103.34 1297.62,1102.38 1296.66,1101.79 1295.30,1101.60"/>
    </edge>
    <edge id=":1236_1" function="internal">
        <lane id=":1236_1_0" index="0" speed="13.90" length="9.40" shape="1298.40,1104.70 1298.40,1095.30"/>
    </edge>
    <edge id=":1236_2" function="internal">
        <lane id=":1236_2_0" index="0" speed="13.90" length="2.34" shape="1298.40,1104.70 1299.20,1103.50 1300.00,1103.10"/>
    </edge>
    <edge id=":1236_9" function="internal">
        <lane id=":1236_9_0" index="0" speed="13.90" length="2.34" shape="1300.00,1103.10 1300.80,1103.50 1301.60,1104.70"/>
    </edge>
    <edge id=":1236_3" function="internal">
        <lane id=":1236_3_0" index="0" speed="13.90" length="9.40" shape="1301.60,1095.30 1301.60,1104.70"/>
    </edge>
    <edge id=":1236_4" function="internal">
        <lane id=":1236_4_0" index="0" speed="13.90" length="5.08" shape="1301.60,1095.30 1301.21,1098.06 1300.03,1100.03"/>
    </edge>
    <edge id=":1236_5" function="internal">
        <lane id=":1236_5_0" index="0" speed="13.90" length="2.34" shape="1301.60,1095.30 1300.80,1096.50 1300.00,1096.90"/>
    </edge>
    <edge id=":1236_10" function="internal">
        <lane id=":1236_10_0" index="0" speed="13.90" length="5.08" shape="1300.03,1100.03 1298.06,1101.21 1295.30,1101.60"/>
    </edge>
    <edge id=":1236_11" function="internal">
        <lane id=":1236_11_0" index="0" speed="13.90" length="2.34" shape="1300.00,1096.90 1299.20,1096.50 1298.40,1095.30"/>
    </edge>
    <edge id=":1236_6" function="internal">
        <lane id=":1236_6_0" index="0" speed="13.90" length="5.00" shape="1295.30,1098.40 1296.66,1098.21 1297.62,1097.62 1298.21,1096.66 1298.40,1095.30"/>
    </edge>
    <edge id=":1236_7" function="internal">
        <lane id=":1236_7_0" index="0" speed="13.90" length="10.16" shape="1295.30,1098.40 1298.06,1098.79 1300.03,1099.97 1301.21,1101.94 1301.60,1104.70"/>
    </edge>
    <edge id=":1236_8" function="internal">
        <lane id=":1236_8_0" index="0" speed="13.90" length="4.67" shape="1295.30,1098.40 1296.50,1099.20 1296.90,1100.00 1296.50,1100.80 1295.30,1101.60"/>
    </edge>
    <edge id=":1238_0" function="internal">
        <lane id=":1238_0_0" index="0" speed="13.90" length="9.40" shape="1198.40,1004.70 1198.40,995.30"/>
    </edge>
    <edge id=":1238_1" function="internal">
        <lane id=":1238_1_0" index="0" speed="13.90" length="5.08" shape="1198.40,1004.70 1198.79,1001.94 1199.97,999.98"/>
    </edge>
    <edge id=":1238_2" function="internal">
        <lane id=":1238_2_0" index="0" speed="13.90" length="2.34" shape="1198.40,1004.70 1199.20,1003.50 1200.00,1003.10"/>
    </edge>
    <edge id=":1238_9" function="internal">
        <lane id=":1238_9_0" index="0" speed="13.90" length="5.08" shape="1199.97,999.98 1201.94,998.79 1204.70,998.40"/>
    </edge>
    <edge id=":1238_10" function="internal">
        <lane id=":1238_10_0" index="0" speed="13.90" length="2.34" shape="1200.00,1003.10 1200.80,1003.50 1201.60,1004.70"/>
    </edge>
    <edge id=":1238_3" function="internal">
        <lane id=":1238_3_0" index="0" speed="13.90" length="5.00" shape="1204.70,1001.60 1203.34,1001.79 1202.38,1002.38 1201.79,1003.34 1201.60,1004.70"/>
    </edge>
    <edge id=":1238_4" function="internal">
        <lane id=":1238_4_0" index="0" speed="13.90" length="10.16" shape="1204.70,1001.60 1201.94,1001.21 1199.97,1000.03 1198.79,998.06 1198.40,995.30"/>
    </edge>
    <edge id=":1238_5" function="internal">
        <lane id=":1238_5_0" index="0" speed="13.90" length="4.67" shape="1204.70,1001.60 1203.50,1000.80 1203.10,1000.00 1203.50,999.20 1204.70,998.40"/>
    </edge>
    <edge id=":1238_6" function="internal">
        <lane id=":1238_6_0" index="0" speed="13.90" length="5.00" shape="1201.60,995.30 1201.79,996.66 1202.38,997.62 1203.34,998.21 1204.70,998.40"/>
    </edge>
    <edge id=":1238_7" function="internal">
        <lane id=":1238_7_0" index="0" speed="13.90" length="9.40" shape="1201.60,995.30 1201.60,1004.70"/>
    </edge>
    <edge id=":1238_8" function="internal">
        <lane id=":1238_8_0" index="0" speed="13.90" length="2.34" shape="1201.60,995.30 1200.80,996.50 1200.00,996.90"/>
    </edge>
    <edge id=":1238_11" function="internal">
        <lane id=":1238_11_0" index="0" speed="13.90" length="2.34" shape="1200.00,996.90 1199.20,996.50 1198.40,995.30"/>
    </edge>
    <edge id=":1246_0" function="internal">
        <lane id=":1246_0_0" index="0" speed="13.90" length="9.40" shape="1204.70,1201.60 1195.30,1201.60"/>
    </edge>
    <edge id=":1246_1" function="internal">
        <lane id=":1246_1_0" index="0" speed="13.90" length="5.08" shape="1204.70,1201.60 1201.94,1201.21 1199.97,1200.03"/>
    </edge>
    <edge id=":1246_2" function="internal">
        <lane id=":1246_2_0" index="0" speed="13.90" length="2.34" shape="1204.70,1201.60 1203.50,1200.80 1203.10,1200.00"/>
    </edge>
    <edge id=":1246_9" function="internal">
        <lane id=":1246_9_0" index="0" speed="13.90" length="5.08" shape="1199.97,1200.03 1198.79,1198.06 1198.40,1195.30"/>
    </edge>
    <edge id=":1246_10" function="internal">
        <lane id=":1246_10_0" index="0" speed="13.90" length="2.34" shape="1203.10,1200.00 1203.50,1199.20 1204.70,1198.40"/>
    </edge>
    <edge id=":1246_3" function="internal">
        <lane id=":1246_3_0" index="0" speed="13.90" length="5.00" shape="1201.60,1195.30 1201.79,1196.66 1202.38,1197.62 1203.34,1198.21 1204.70,1198.40"/>
    </edge>
    <edge id=":1246_4" function="internal">
        <lane id=":1246_4_0" index="0" speed="13.90" length="10.16" shape="1201.60,1195.30 1201.21,1198.06 1200.03,1200.03 1198.06,1201.21 1195.30,1201.60"/>
    </edge>
    <edge id=":1246_5" function="internal">
        <lane id=":1246_5_0" index="0" speed="13.90" length="4.67" shape="1201.60,1195.30 1200.80,1196.50 1200.00,1196.90 1199.20,1196.50 1198.40,1195.30"/>
    </edge>
    <edge id=":1246_6" function="internal">
        <lane id=":1246_6_0" index="0" speed="13.90" length="5.00" shape="1195.30,1198.40 1196.66,1198.21 1197.62,1197.62 1198.21,1196.66 1198.40,1195.30"/>
    </edge>
    <edge id=":1246_7" function="internal">
        <lane id=":1246_7_0" index="0" speed="13.90" length="9.40" shape="1195.30,1198.40 1204.70,1198.40"/>
    </edge>
    <edge id=":1246_8" function="internal">
        <lane id=":1246_8_0" index="0" speed="13.90" length="2.34" shape="1195.30,1198.40 1196.50,1199.20 1196.90,1200.00"/>
    </edge>
    <edge id=":1246_11" function="internal">
        <lane id=":1246_11_0" index="0" speed="13.90" length="2.34" shape="1196.90,1200.00 1196.50,1200.80 1195.30,1201.60"/>
    </edge>
    <edge id=":1257_0" function="internal">
        <lane id=":1257_0_0" index="0" speed="13.90" length="5.00" shape="998.40,1204.70 998.21,1203.34 997.62,1202.38 996.66,1201.79 995.30,1201.60"/>
    </edge>
    <edge id=":1257_1" function="internal">
        <lane id=":1257_1_0" index="0" speed="13.90" length="10.16" shape="998.40,1204.70 998.79,1201.94 999.97,1199.97 1001.94,1198.79 1004.70,1198.40"/>
    </edge>
    <edge id=":1257_2" function="internal">