<?xml version="1.0" encoding="UTF-8"?>

<!-- generated on 2021-06-10 09:08:41 by Eclipse SUMO duarouter Version v1_9_2+0439-960336d
This data file and the accompanying materials
are made available under the terms of the Eclipse Public License v2.0
which accompanies this distribution, and is available at
http://www.eclipse.org/legal/epl-v20.html
SPDX-License-Identifier: EPL-2.0
<configuration xmlns:xsi="http://www.w3.org/2001/XMLSchema-instance" xsi:noNamespaceSchemaLocation="http://sumo.dlr.de/xsd/duarouterConfiguration.xsd">

    <input>
        <net-file value="input_net2.net.xml"/>
        <additional-files value="input_additional.add.xml,input_additional2.add.xml"/>
        <route-files value="input_routes.rou.xml"/>
    </input>

    <output>
        <output-file value="routes.rou.xml"/>
        <write-license value="true"/>
        <alternatives-output value="routes.rou.alt.xml"/>
    </output>

    <report>
        <xml-validation value="never"/>
        <xml-validation.routes value="never"/>
        <no-step-log value="true"/>
    </report>

</configuration>
-->

<routes xmlns:xsi="http://www.w3.org/2001/XMLSchema-instance" xsi:noNamespaceSchemaLocation="http://sumo.dlr.de/xsd/routes_file.xsd">
    <person id="p0" depart="400.00">
        <stop busStop="stopB_S" duration="0.10"/>
        <personTrip from="railNS" to="railNS" modes="public" departPos="300.00" arrivalPos="800.00" busStop="stopA_S" walkFactor="0.75" costs="138.90"/>
        <personTrip from="railNS" to="railWE" modes="public" departPos="800.00" arrivalPos="300.00" busStop="stopA_E" walkFactor="0.75" costs="127.46"/>
        <personTrip from="railWE" to="railWE" modes="public" departPos="300.00" arrivalPos="1400.00" busStop="stopC_E" walkFactor="0.75" costs="9.42 327.01 187.48 368.48 218.35"/>
    </person>
</routes>
