<?xml version="1.0" encoding="UTF-8"?>

<!-- generated on Tue Mar 16 12:12:58 2021 by Eclipse SUMO netconvert Version v1_8_0+1660-f4720e7
This data file and the accompanying materials
are made available under the terms of the Eclipse Public License v2.0
which accompanies this distribution, and is available at
http://www.eclipse.org/legal/epl-v20.html
SPDX-License-Identifier: EPL-2.0
<configuration xmlns:xsi="http://www.w3.org/2001/XMLSchema-instance" xsi:noNamespaceSchemaLocation="http://sumo.dlr.de/xsd/netconvertConfiguration.xsd">

    <input>
        <node-files value="input_plain.nod.xml"/>
        <edge-files value="input_plain.edg.xml"/>
    </input>

    <output>
        <write-license value="true"/>
    </output>

    <processing>
        <geometry.max-segment-length value="40"/>
    </processing>

    <report>
        <xml-validation value="never"/>
        <aggregate-warnings value="5"/>
    </report>

</configuration>
-->

<net version="1.16" junctionCornerDetail="5" limitTurnSpeed="5.50" xmlns:xsi="http://www.w3.org/2001/XMLSchema-instance" xsi:noNamespaceSchemaLocation="http://sumo.dlr.de/xsd/net_file.xsd">

    <location netOffset="100.00,100.00" convBoundary="0.00,0.00,100.00,0.00" origBoundary="-10000000000.00,-10000000000.00,10000000000.00,10000000000.00" projParameter="!"/>

    <edge id="WC" from="W" to="C" priority="-1" shape="0.00,0.00 40.00,0.00 80.00,0.00 100.00,0.00">
        <lane id="WC_0" index="0" speed="13.89" length="100.00" shape="0.00,-1.60 40.00,-1.60 80.00,-1.60 100.00,-1.60"/>
    </edge>

    <junction id="C" type="dead_end" x="100.00" y="0.00" incLanes="WC_0" intLanes="" shape="100.00,-3.20 100.00,0.00"/>
    <junction id="W" type="dead_end" x="0.00" y="0.00" incLanes="" intLanes="" shape="0.00,0.00 0.00,-3.20"/>

</net>
