<?xml version="1.0" encoding="UTF-8"?>

<!-- generated on 2021-12-22 14:17:05 by Eclipse SUMO sumo Version v1_11_0+0649-d380f6b
This data file and the accompanying materials
are made available under the terms of the Eclipse Public License v2.0
which accompanies this distribution, and is available at
http://www.eclipse.org/legal/epl-v20.html
SPDX-License-Identifier: EPL-2.0
<configuration xmlns:xsi="http://www.w3.org/2001/XMLSchema-instance" xsi:noNamespaceSchemaLocation="http://sumo.dlr.de/xsd/sumoConfiguration.xsd">

    <input>
        <net-file value="net.net.xml"/>
        <route-files value="input_routes.rou.xml"/>
        <additional-files value="input_additional.add.xml,input_additional2.add.xml"/>
    </input>

    <output>
        <write-license value="true"/>
    </output>

    <processing>
        <default.speeddev value="0"/>
    </processing>

    <report>
        <verbose value="true"/>
        <xml-validation value="never"/>
        <xml-validation.routes value="never"/>
        <duration-log.statistics value="true"/>
        <no-step-log value="true"/>
    </report>

</configuration>
-->

<tlsStates xmlns:xsi="http://www.w3.org/2001/XMLSchema-instance" xsi:noNamespaceSchemaLocation="http://sumo.dlr.de/xsd/tlsstates_file.xsd">
    <tlsState time="0.00" id="C0" programID="custom" phase="0" state="GGggrrrrGGggrrrr"/>
    <tlsState time="0.00" id="B0" programID="custom" phase="0" state="GGggrrrrGGggrrrr"/>
    <tlsState time="5.00" id="C0" programID="custom" phase="1" state="yyyyrrrryyyyrrrr"/>
    <tlsState time="5.00" id="B0" programID="custom" phase="1" state="yyyyrrrryyyyrrrr"/>
    <tlsState time="8.00" id="C0" programID="custom" phase="2" state="rrrrGGggrrrrGGgg"/>
    <tlsState time="8.00" id="B0" programID="custom" phase="2" state="rrrrGGggrrrrGGgg"/>
    <tlsState time="30.00" id="C0" programID="custom" phase="3" state="rrrryyyyrrrryyyy"/>
    <tlsState time="30.00" id="B0" programID="custom" phase="3" state="rrrryyyyrrrryyyy"/>
    <tlsState time="33.00" id="C0" programID="custom" phase="0" state="GGggrrrrGGggrrrr"/>
    <tlsState time="33.00" id="B0" programID="custom" phase="0" state="GGggrrrrGGggrrrr"/>
    <tlsState time="38.00" id="C0" programID="custom" phase="1" state="yyyyrrrryyyyrrrr"/>
    <tlsState time="38.00" id="B0" programID="custom" phase="1" state="yyyyrrrryyyyrrrr"/>
    <tlsState time="41.00" id="C0" programID="custom" phase="2" state="rrrrGGggrrrrGGgg"/>
    <tlsState time="41.00" id="B0" programID="custom" phase="2" state="rrrrGGggrrrrGGgg"/>
    <tlsState time="120.00" id="C0" programID="custom" phase="3" state="rrrryyyyrrrryyyy"/>
    <tlsState time="120.00" id="B0" programID="custom" phase="3" state="rrrryyyyrrrryyyy"/>
    <tlsState time="123.00" id="C0" programID="custom" phase="0" state="GGggrrrrGGggrrrr"/>
    <tlsState time="123.00" id="B0" programID="custom" phase="0" state="GGggrrrrGGggrrrr"/>
    <tlsState time="128.00" id="B0" programID="custom" phase="1" state="yyyyrrrryyyyrrrr"/>
    <tlsState time="131.00" id="B0" programID="custom" phase="2" state="rrrrGGggrrrrGGgg"/>
    <tlsState time="152.00" id="C0" programID="custom" phase="1" state="yyyyrrrryyyyrrrr"/>
    <tlsState time="155.00" id="C0" programID="custom" phase="2" state="rrrrGGggrrrrGGgg"/>
    <tlsState time="165.00" id="B0" programID="custom" phase="3" state="rrrryyyyrrrryyyy"/>
    <tlsState time="168.00" id="B0" programID="custom" phase="0" state="GGggrrrrGGggrrrr"/>
    <tlsState time="189.00" id="C0" programID="custom" phase="3" state="rrrryyyyrrrryyyy"/>
    <tlsState time="192.00" id="C0" programID="custom" phase="0" state="GGggrrrrGGggrrrr"/>
    <tlsState time="204.00" id="B0" programID="custom" phase="1" state="yyyyrrrryyyyrrrr"/>
    <tlsState time="207.00" id="B0" programID="custom" phase="2" state="rrrrGGggrrrrGGgg"/>
    <tlsState time="208.00" id="C0" programID="custom" phase="1" state="yyyyrrrryyyyrrrr"/>
    <tlsState time="211.00" id="C0" programID="custom" phase="2" state="rrrrGGggrrrrGGgg"/>
    <tlsState time="216.00" id="C0" programID="custom" phase="3" state="rrrryyyyrrrryyyy"/>
    <tlsState time="219.00" id="C0" programID="custom" phase="0" state="GGggrrrrGGggrrrr"/>
    <tlsState time="231.00" id="C0" programID="custom" phase="1" state="yyyyrrrryyyyrrrr"/>
    <tlsState time="234.00" id="C0" programID="custom" phase="2" state="rrrrGGggrrrrGGgg"/>
    <tlsState time="262.00" id="B0" programID="custom" phase="3" state="rrrryyyyrrrryyyy"/>
    <tlsState time="265.00" id="B0" programID="custom" phase="0" state="GGggrrrrGGggrrrr"/>
    <tlsState time="300.00" id="C0" programID="custom" phase="3" state="rrrryyyyrrrryyyy"/>
    <tlsState time="301.00" id="B0" programID="custom" phase="1" state="yyyyrrrryyyyrrrr"/>
    <tlsState time="303.00" id="C0" programID="custom" phase="0" state="GGggrrrrGGggrrrr"/>
    <tlsState time="304.00" id="B0" programID="custom" phase="2" state="rrrrGGggrrrrGGgg"/>
    <tlsState time="332.00" id="C0" programID="custom" phase="1" state="yyyyrrrryyyyrrrr"/>
    <tlsState time="335.00" id="C0" programID="custom" phase="2" state="rrrrGGggrrrrGGgg"/>
    <tlsState time="360.00" id="B0" programID="custom" phase="3" state="rrrryyyyrrrryyyy"/>
    <tlsState time="363.00" id="B0" programID="custom" phase="0" state="GGggrrrrGGggrrrr"/>
    <tlsState time="368.00" id="B0" programID="custom" phase="1" state="yyyyrrrryyyyrrrr"/>
    <tlsState time="371.00" id="B0" programID="custom" phase="2" state="rrrrGGggrrrrGGgg"/>
    <tlsState time="382.00" id="C0" programID="custom" phase="3" state="rrrryyyyrrrryyyy"/>
    <tlsState time="385.00" id="C0" programID="custom" phase="0" state="GGggrrrrGGggrrrr"/>
    <tlsState time="390.00" id="B0" programID="custom" phase="3" state="rrrryyyyrrrryyyy"/>
    <tlsState time="393.00" id="B0" programID="custom" phase="0" state="GGggrrrrGGggrrrr"/>
    <tlsState time="403.00" id="C0" programID="custom" phase="1" state="yyyyrrrryyyyrrrr"/>
    <tlsState time="406.00" id="C0" programID="custom" phase="2" state="rrrrGGggrrrrGGgg"/>
    <tlsState time="422.00" id="C0" programID="custom" phase="3" state="rrrryyyyrrrryyyy"/>
    <tlsState time="425.00" id="C0" programID="custom" phase="0" state="GGggrrrrGGggrrrr"/>
    <tlsState time="428.00" id="B0" programID="custom" phase="1" state="yyyyrrrryyyyrrrr"/>
    <tlsState time="431.00" id="B0" programID="custom" phase="2" state="rrrrGGggrrrrGGgg"/>
    <tlsState time="441.00" id="C0" programID="custom" phase="1" state="yyyyrrrryyyyrrrr"/>
    <tlsState time="444.00" id="C0" programID="custom" phase="2" state="rrrrGGggrrrrGGgg"/>
    <tlsState time="480.00" id="B0" programID="custom" phase="3" state="rrrryyyyrrrryyyy"/>
    <tlsState time="483.00" id="B0" programID="custom" phase="0" state="GGggrrrrGGggrrrr"/>
    <tlsState time="488.00" id="B0" programID="custom" phase="1" state="yyyyrrrryyyyrrrr"/>
    <tlsState time="491.00" id="B0" programID="custom" phase="2" state="rrrrGGggrrrrGGgg"/>
    <tlsState time="494.00" id="C0" programID="custom" phase="3" state="rrrryyyyrrrryyyy"/>
    <tlsState time="497.00" id="C0" programID="custom" phase="0" state="GGggrrrrGGggrrrr"/>
    <tlsState time="514.00" id="C0" programID="custom" phase="1" state="yyyyrrrryyyyrrrr"/>
    <tlsState time="517.00" id="C0" programID="custom" phase="2" state="rrrrGGggrrrrGGgg"/>
    <tlsState time="532.00" id="B0" programID="custom" phase="3" state="rrrryyyyrrrryyyy"/>
    <tlsState time="535.00" id="B0" programID="custom" phase="0" state="GGggrrrrGGggrrrr"/>
    <tlsState time="558.00" id="C0" programID="custom" phase="3" state="rrrryyyyrrrryyyy"/>
    <tlsState time="561.00" id="C0" programID="custom" phase="0" state="GGggrrrrGGggrrrr"/>
    <tlsState time="570.00" id="B0" programID="custom" phase="1" state="yyyyrrrryyyyrrrr"/>
    <tlsState time="573.00" id="B0" programID="custom" phase="2" state="rrrrGGggrrrrGGgg"/>
    <tlsState time="589.00" id="C0" programID="custom" phase="1" state="yyyyrrrryyyyrrrr"/>
    <tlsState time="592.00" id="C0" programID="custom" phase="2" state="rrrrGGggrrrrGGgg"/>
    <tlsState time="622.00" id="B0" programID="custom" phase="3" state="rrrryyyyrrrryyyy"/>
    <tlsState time="625.00" id="B0" programID="custom" phase="0" state="GGggrrrrGGggrrrr"/>
    <tlsState time="638.00" id="C0" programID="custom" phase="3" state="rrrryyyyrrrryyyy"/>
    <tlsState time="641.00" id="C0" programID="custom" phase="0" state="GGggrrrrGGggrrrr"/>
    <tlsState time="657.00" id="B0" programID="custom" phase="1" state="yyyyrrrryyyyrrrr"/>
    <tlsState time="659.00" id="C0" programID="custom" phase="1" state="yyyyrrrryyyyrrrr"/>
    <tlsState time="660.00" id="B0" programID="custom" phase="2" state="rrrrGGggrrrrGGgg"/>
    <tlsState time="662.00" id="C0" programID="custom" phase="2" state="rrrrGGggrrrrGGgg"/>
    <tlsState time="667.00" id="C0" programID="custom" phase="3" state="rrrryyyyrrrryyyy"/>
    <tlsState time="670.00" id="C0" programID="custom" phase="0" state="GGggrrrrGGggrrrr"/>
    <tlsState time="683.00" id="C0" programID="custom" phase="1" state="yyyyrrrryyyyrrrr"/>
    <tlsState time="686.00" id="C0" programID="custom" phase="2" state="rrrrGGggrrrrGGgg"/>
    <tlsState time="712.00" id="B0" programID="custom" phase="3" state="rrrryyyyrrrryyyy"/>
    <tlsState time="715.00" id="B0" programID="custom" phase="0" state="GGggrrrrGGggrrrr"/>
    <tlsState time="720.00" id="B0" programID="custom" phase="1" state="yyyyrrrryyyyrrrr"/>
    <tlsState time="723.00" id="B0" programID="custom" phase="2" state="rrrrGGggrrrrGGgg"/>
    <tlsState time="750.00" id="B0" programID="custom" phase="3" state="rrrryyyyrrrryyyy"/>
    <tlsState time="753.00" id="C0" programID="custom" phase="3" state="rrrryyyyrrrryyyy"/>
    <tlsState time="753.00" id="B0" programID="custom" phase="0" state="GGggrrrrGGggrrrr"/>
    <tlsState time="756.00" id="C0" programID="custom" phase="0" state="GGggrrrrGGggrrrr"/>
    <tlsState time="785.00" id="C0" programID="custom" phase="1" state="yyyyrrrryyyyrrrr"/>
    <tlsState time="787.00" id="B0" programID="custom" phase="1" state="yyyyrrrryyyyrrrr"/>
    <tlsState time="788.00" id="C0" programID="custom" phase="2" state="rrrrGGggrrrrGGgg"/>
    <tlsState time="790.00" id="B0" programID="custom" phase="2" state="rrrrGGggrrrrGGgg"/>
    <tlsState time="793.00" id="C0" programID="custom" phase="3" state="rrrryyyyrrrryyyy"/>
    <tlsState time="796.00" id="C0" programID="custom" phase="0" state="GGggrrrrGGggrrrr"/>
    <tlsState time="801.00" id="C0" programID="custom" phase="1" state="yyyyrrrryyyyrrrr"/>
    <tlsState time="804.00" id="C0" programID="custom" phase="2" state="rrrrGGggrrrrGGgg"/>
    <tlsState time="840.00" id="B0" programID="custom" phase="3" state="rrrryyyyrrrryyyy"/>
    <tlsState time="843.00" id="B0" programID="custom" phase="0" state="GGggrrrrGGggrrrr"/>
    <tlsState time="848.00" id="B0" programID="custom" phase="1" state="yyyyrrrryyyyrrrr"/>
    <tlsState time="851.00" id="B0" programID="custom" phase="2" state="rrrrGGggrrrrGGgg"/>
    <tlsState time="852.00" id="C0" programID="custom" phase="3" state="rrrryyyyrrrryyyy"/>
    <tlsState time="855.00" id="C0" programID="custom" phase="0" state="GGggrrrrGGggrrrr"/>
    <tlsState time="886.00" id="C0" programID="custom" phase="1" state="yyyyrrrryyyyrrrr"/>
    <tlsState time="889.00" id="C0" programID="custom" phase="2" state="rrrrGGggrrrrGGgg"/>
    <tlsState time="899.00" id="B0" programID="custom" phase="3" state="rrrryyyyrrrryyyy"/>
    <tlsState time="902.00" id="B0" programID="custom" phase="0" state="GGggrrrrGGggrrrr"/>
    <tlsState time="932.00" id="C0" programID="custom" phase="3" state="rrrryyyyrrrryyyy"/>
    <tlsState time="935.00" id="C0" programID="custom" phase="0" state="GGggrrrrGGggrrrr"/>
    <tlsState time="937.00" id="B0" programID="custom" phase="1" state="yyyyrrrryyyyrrrr"/>
    <tlsState time="940.00" id="B0" programID="custom" phase="2" state="rrrrGGggrrrrGGgg"/>
    <tlsState time="951.00" id="C0" programID="custom" phase="1" state="yyyyrrrryyyyrrrr"/>
    <tlsState time="954.00" id="C0" programID="custom" phase="2" state="rrrrGGggrrrrGGgg"/>
    <tlsState time="993.00" id="B0" programID="custom" phase="3" state="rrrryyyyrrrryyyy"/>
    <tlsState time="996.00" id="B0" programID="custom" phase="0" state="GGggrrrrGGggrrrr"/>
    <tlsState time="1004.00" id="C0" programID="custom" phase="3" state="rrrryyyyrrrryyyy"/>
    <tlsState time="1007.00" id="C0" programID="custom" phase="0" state="GGggrrrrGGggrrrr"/>
    <tlsState time="1029.00" id="B0" programID="custom" phase="1" state="yyyyrrrryyyyrrrr"/>
    <tlsState time="1032.00" id="B0" programID="custom" phase="2" state="rrrrGGggrrrrGGgg"/>
    <tlsState time="1037.00" id="C0" programID="custom" phase="1" state="yyyyrrrryyyyrrrr"/>
    <tlsState time="1040.00" id="C0" programID="custom" phase="2" state="rrrrGGggrrrrGGgg"/>
    <tlsState time="1045.00" id="C0" programID="custom" phase="3" state="rrrryyyyrrrryyyy"/>
    <tlsState time="1048.00" id="C0" programID="custom" phase="0" state="GGggrrrrGGggrrrr"/>
    <tlsState time="1053.00" id="C0" programID="custom" phase="1" state="yyyyrrrryyyyrrrr"/>
    <tlsState time="1056.00" id="C0" programID="custom" phase="2" state="rrrrGGggrrrrGGgg"/>
    <tlsState time="1080.00" id="B0" programID="custom" phase="3" state="rrrryyyyrrrryyyy"/>
    <tlsState time="1083.00" id="B0" programID="custom" phase="0" state="GGggrrrrGGggrrrr"/>
    <tlsState time="1088.00" id="B0" programID="custom" phase="1" state="yyyyrrrryyyyrrrr"/>
    <tlsState time="1091.00" id="B0" programID="custom" phase="2" state="rrrrGGggrrrrGGgg"/>
    <tlsState time="1110.00" id="B0" programID="custom" phase="3" state="rrrryyyyrrrryyyy"/>
    <tlsState time="1113.00" id="B0" programID="custom" phase="0" state="GGggrrrrGGggrrrr"/>
    <tlsState time="1117.00" id="C0" programID="custom" phase="3" state="rrrryyyyrrrryyyy"/>
    <tlsState time="1120.00" id="C0" programID="custom" phase="0" state="GGggrrrrGGggrrrr"/>
    <tlsState time="1148.00" id="B0" programID="custom" phase="1" state="yyyyrrrryyyyrrrr"/>
    <tlsState time="1149.00" id="C0" programID="custom" phase="1" state="yyyyrrrryyyyrrrr"/>
    <tlsState time="1151.00" id="B0" programID="custom" phase="2" state="rrrrGGggrrrrGGgg"/>
    <tlsState time="1152.00" id="C0" programID="custom" phase="2" state="rrrrGGggrrrrGGgg"/>
    <tlsState time="1157.00" id="C0" programID="custom" phase="3" state="rrrryyyyrrrryyyy"/>
    <tlsState time="1160.00" id="C0" programID="custom" phase="0" state="GGggrrrrGGggrrrr"/>
    <tlsState time="1165.00" id="C0" programID="custom" phase="1" state="yyyyrrrryyyyrrrr"/>
    <tlsState time="1168.00" id="C0" programID="custom" phase="2" state="rrrrGGggrrrrGGgg"/>
    <tlsState time="1200.00" id="B0" programID="custom" phase="3" state="rrrryyyyrrrryyyy"/>
    <tlsState time="1203.00" id="B0" programID="custom" phase="0" state="GGggrrrrGGggrrrr"/>
    <tlsState time="1208.00" id="B0" programID="custom" phase="1" state="yyyyrrrryyyyrrrr"/>
    <tlsState time="1211.00" id="B0" programID="custom" phase="2" state="rrrrGGggrrrrGGgg"/>
    <tlsState time="1214.00" id="C0" programID="custom" phase="3" state="rrrryyyyrrrryyyy"/>
    <tlsState time="1217.00" id="C0" programID="custom" phase="0" state="GGggrrrrGGggrrrr"/>
    <tlsState time="1246.00" id="C0" programID="custom" phase="1" state="yyyyrrrryyyyrrrr"/>
    <tlsState time="1249.00" id="C0" programID="custom" phase="2" state="rrrrGGggrrrrGGgg"/>
    <tlsState time="1252.00" id="B0" programID="custom" phase="3" state="rrrryyyyrrrryyyy"/>
    <tlsState time="1255.00" id="B0" programID="custom" phase="0" state="GGggrrrrGGggrrrr"/>
    <tlsState time="1289.00" id="C0" programID="custom" phase="3" state="rrrryyyyrrrryyyy"/>
    <tlsState time="1289.00" id="B0" programID="custom" phase="1" state="yyyyrrrryyyyrrrr"/>
    <tlsState time="1292.00" id="C0" programID="custom" phase="0" state="GGggrrrrGGggrrrr"/>
    <tlsState time="1292.00" id="B0" programID="custom" phase="2" state="rrrrGGggrrrrGGgg"/>
    <tlsState time="1308.00" id="C0" programID="custom" phase="1" state="yyyyrrrryyyyrrrr"/>
    <tlsState time="1311.00" id="C0" programID="custom" phase="2" state="rrrrGGggrrrrGGgg"/>
    <tlsState time="1346.00" id="B0" programID="custom" phase="3" state="rrrryyyyrrrryyyy"/>
    <tlsState time="1349.00" id="B0" programID="custom" phase="0" state="GGggrrrrGGggrrrr"/>
    <tlsState time="1361.00" id="C0" programID="custom" phase="3" state="rrrryyyyrrrryyyy"/>
    <tlsState time="1364.00" id="C0" programID="custom" phase="0" state="GGggrrrrGGggrrrr"/>
    <tlsState time="1382.00" id="B0" programID="custom" phase="1" state="yyyyrrrryyyyrrrr"/>
    <tlsState time="1385.00" id="B0" programID="custom" phase="2" state="rrrrGGggrrrrGGgg"/>
    <tlsState time="1393.00" id="C0" programID="custom" phase="1" state="yyyyrrrryyyyrrrr"/>
    <tlsState time="1396.00" id="C0" programID="custom" phase="2" state="rrrrGGggrrrrGGgg"/>
    <tlsState time="1432.00" id="B0" programID="custom" phase="3" state="rrrryyyyrrrryyyy"/>
    <tlsState time="1435.00" id="B0" programID="custom" phase="0" state="GGggrrrrGGggrrrr"/>
    <tlsState time="1440.00" id="B0" programID="custom" phase="1" state="yyyyrrrryyyyrrrr"/>
    <tlsState time="1443.00" id="B0" programID="custom" phase="2" state="rrrrGGggrrrrGGgg"/>
    <tlsState time="1447.00" id="C0" programID="custom" phase="3" state="rrrryyyyrrrryyyy"/>
    <tlsState time="1450.00" id="C0" programID="custom" phase="0" state="GGggrrrrGGggrrrr"/>
    <tlsState time="1466.00" id="C0" programID="custom" phase="1" state="yyyyrrrryyyyrrrr"/>
    <tlsState time="1469.00" id="C0" programID="custom" phase="2" state="rrrrGGggrrrrGGgg"/>
    <tlsState time="1470.00" id="B0" programID="custom" phase="3" state="rrrryyyyrrrryyyy"/>
    <tlsState time="1473.00" id="B0" programID="custom" phase="0" state="GGggrrrrGGggrrrr"/>
    <tlsState time="1483.00" id="C0" programID="custom" phase="3" state="rrrryyyyrrrryyyy"/>
    <tlsState time="1486.00" id="C0" programID="custom" phase="0" state="GGggrrrrGGggrrrr"/>
    <tlsState time="1500.00" id="C0" programID="custom" phase="1" state="yyyyrrrryyyyrrrr"/>
    <tlsState time="1503.00" id="C0" programID="custom" phase="2" state="rrrrGGggrrrrGGgg"/>
    <tlsState time="1508.00" id="B0" programID="custom" phase="1" state="yyyyrrrryyyyrrrr"/>
    <tlsState time="1511.00" id="B0" programID="custom" phase="2" state="rrrrGGggrrrrGGgg"/>
    <tlsState time="1560.00" id="B0" programID="custom" phase="3" state="rrrryyyyrrrryyyy"/>
    <tlsState time="1563.00" id="B0" programID="custom" phase="0" state="GGggrrrrGGggrrrr"/>
    <tlsState time="1568.00" id="B0" programID="custom" phase="1" state="yyyyrrrryyyyrrrr"/>
    <tlsState time="1571.00" id="B0" programID="custom" phase="2" state="rrrrGGggrrrrGGgg"/>
    <tlsState time="1574.00" id="C0" programID="custom" phase="3" state="rrrryyyyrrrryyyy"/>
    <tlsState time="1577.00" id="C0" programID="custom" phase="0" state="GGggrrrrGGggrrrr"/>
    <tlsState time="1606.00" id="C0" programID="custom" phase="1" state="yyyyrrrryyyyrrrr"/>
    <tlsState time="1609.00" id="C0" programID="custom" phase="2" state="rrrrGGggrrrrGGgg"/>
    <tlsState time="1619.00" id="B0" programID="custom" phase="3" state="rrrryyyyrrrryyyy"/>
    <tlsState time="1622.00" id="B0" programID="custom" phase="0" state="GGggrrrrGGggrrrr"/>
    <tlsState time="1652.00" id="C0" programID="custom" phase="3" state="rrrryyyyrrrryyyy"/>
    <tlsState time="1655.00" id="C0" programID="custom" phase="0" state="GGggrrrrGGggrrrr"/>
    <tlsState time="1657.00" id="B0" programID="custom" phase="1" state="yyyyrrrryyyyrrrr"/>
    <tlsState time="1660.00" id="B0" programID="custom" phase="2" state="rrrrGGggrrrrGGgg"/>
    <tlsState time="1684.00" id="C0" programID="custom" phase="1" state="yyyyrrrryyyyrrrr"/>
    <tlsState time="1687.00" id="C0" programID="custom" phase="2" state="rrrrGGggrrrrGGgg"/>
    <tlsState time="1713.00" id="B0" programID="custom" phase="3" state="rrrryyyyrrrryyyy"/>
    <tlsState time="1716.00" id="B0" programID="custom" phase="0" state="GGggrrrrGGggrrrr"/>
    <tlsState time="1738.00" id="C0" programID="custom" phase="3" state="rrrryyyyrrrryyyy"/>
    <tlsState time="1741.00" id="C0" programID="custom" phase="0" state="GGggrrrrGGggrrrr"/>
    <tlsState time="1749.00" id="B0" programID="custom" phase="1" state="yyyyrrrryyyyrrrr"/>
    <tlsState time="1752.00" id="B0" programID="custom" phase="2" state="rrrrGGggrrrrGGgg"/>
    <tlsState time="1758.00" id="C0" programID="custom" phase="1" state="yyyyrrrryyyyrrrr"/>
    <tlsState time="1761.00" id="C0" programID="custom" phase="2" state="rrrrGGggrrrrGGgg"/>
    <tlsState time="1766.00" id="C0" programID="custom" phase="3" state="rrrryyyyrrrryyyy"/>
    <tlsState time="1769.00" id="C0" programID="custom" phase="0" state="GGggrrrrGGggrrrr"/>
    <tlsState time="1781.00" id="C0" programID="custom" phase="1" state="yyyyrrrryyyyrrrr"/>
    <tlsState time="1784.00" id="C0" programID="custom" phase="2" state="rrrrGGggrrrrGGgg"/>
    <tlsState time="1803.00" id="B0" programID="custom" phase="3" state="rrrryyyyrrrryyyy"/>
    <tlsState time="1806.00" id="B0" programID="custom" phase="0" state="GGggrrrrGGggrrrr"/>
    <tlsState time="1811.00" id="B0" programID="custom" phase="1" state="yyyyrrrryyyyrrrr"/>
    <tlsState time="1814.00" id="B0" programID="custom" phase="2" state="rrrrGGggrrrrGGgg"/>
    <tlsState time="1830.00" id="B0" programID="custom" phase="3" state="rrrryyyyrrrryyyy"/>
    <tlsState time="1833.00" id="B0" programID="custom" phase="0" state="GGggrrrrGGggrrrr"/>
    <tlsState time="1840.00" id="C0" programID="custom" phase="3" state="rrrryyyyrrrryyyy"/>
    <tlsState time="1843.00" id="C0" programID="custom" phase="0" state="GGggrrrrGGggrrrr"/>
    <tlsState time="1861.00" id="C0" programID="custom" phase="1" state="yyyyrrrryyyyrrrr"/>
    <tlsState time="1864.00" id="C0" programID="custom" phase="2" state="rrrrGGggrrrrGGgg"/>
    <tlsState time="1868.00" id="B0" programID="custom" phase="1" state="yyyyrrrryyyyrrrr"/>
    <tlsState time="1869.00" id="C0" programID="custom" phase="3" state="rrrryyyyrrrryyyy"/>
    <tlsState time="1871.00" id="B0" programID="custom" phase="2" state="rrrrGGggrrrrGGgg"/>
    <tlsState time="1872.00" id="C0" programID="custom" phase="0" state="GGggrrrrGGggrrrr"/>
    <tlsState time="1888.00" id="C0" programID="custom" phase="1" state="yyyyrrrryyyyrrrr"/>
    <tlsState time="1891.00" id="C0" programID="custom" phase="2" state="rrrrGGggrrrrGGgg"/>
    <tlsState time="1920.00" id="B0" programID="custom" phase="3" state="rrrryyyyrrrryyyy"/>
    <tlsState time="1923.00" id="B0" programID="custom" phase="0" state="GGggrrrrGGggrrrr"/>
    <tlsState time="1928.00" id="B0" programID="custom" phase="1" state="yyyyrrrryyyyrrrr"/>
    <tlsState time="1931.00" id="B0" programID="custom" phase="2" state="rrrrGGggrrrrGGgg"/>
    <tlsState time="1937.00" id="C0" programID="custom" phase="3" state="rrrryyyyrrrryyyy"/>
    <tlsState time="1940.00" id="C0" programID="custom" phase="0" state="GGggrrrrGGggrrrr"/>
    <tlsState time="1955.00" id="C0" programID="custom" phase="1" state="yyyyrrrryyyyrrrr"/>
    <tlsState time="1958.00" id="C0" programID="custom" phase="2" state="rrrrGGggrrrrGGgg"/>
    <tlsState time="1972.00" id="B0" programID="custom" phase="3" state="rrrryyyyrrrryyyy"/>
    <tlsState time="1975.00" id="B0" programID="custom" phase="0" state="GGggrrrrGGggrrrr"/>
    <tlsState time="2009.00" id="B0" programID="custom" phase="1" state="yyyyrrrryyyyrrrr"/>
    <tlsState time="2010.00" id="C0" programID="custom" phase="3" state="rrrryyyyrrrryyyy"/>
    <tlsState time="2012.00" id="B0" programID="custom" phase="2" state="rrrrGGggrrrrGGgg"/>
    <tlsState time="2013.00" id="C0" programID="custom" phase="0" state="GGggrrrrGGggrrrr"/>
    <tlsState time="2042.00" id="C0" programID="custom" phase="1" state="yyyyrrrryyyyrrrr"/>
    <tlsState time="2045.00" id="C0" programID="custom" phase="2" state="rrrrGGggrrrrGGgg"/>
    <tlsState time="2062.00" id="B0" programID="custom" phase="3" state="rrrryyyyrrrryyyy"/>
    <tlsState time="2065.00" id="B0" programID="custom" phase="0" state="GGggrrrrGGggrrrr"/>
    <tlsState time="2093.00" id="C0" programID="custom" phase="3" state="rrrryyyyrrrryyyy"/>
    <tlsState time="2096.00" id="C0" programID="custom" phase="0" state="GGggrrrrGGggrrrr"/>
    <tlsState time="2099.00" id="B0" programID="custom" phase="1" state="yyyyrrrryyyyrrrr"/>
    <tlsState time="2102.00" id="B0" programID="custom" phase="2" state="rrrrGGggrrrrGGgg"/>
    <tlsState time="2112.00" id="C0" programID="custom" phase="1" state="yyyyrrrryyyyrrrr"/>
    <tlsState time="2115.00" id="C0" programID="custom" phase="2" state="rrrrGGggrrrrGGgg"/>
    <tlsState time="2159.00" id="B0" programID="custom" phase="3" state="rrrryyyyrrrryyyy"/>
    <tlsState time="2162.00" id="B0" programID="custom" phase="0" state="GGggrrrrGGggrrrr"/>
    <tlsState time="2167.00" id="B0" programID="custom" phase="1" state="yyyyrrrryyyyrrrr"/>
    <tlsState time="2170.00" id="B0" programID="custom" phase="2" state="rrrrGGggrrrrGGgg"/>
    <tlsState time="2174.00" id="C0" programID="custom" phase="3" state="rrrryyyyrrrryyyy"/>
    <tlsState time="2177.00" id="C0" programID="custom" phase="0" state="GGggrrrrGGggrrrr"/>
    <tlsState time="2190.00" id="B0" programID="custom" phase="3" state="rrrryyyyrrrryyyy"/>
    <tlsState time="2193.00" id="B0" programID="custom" phase="0" state="GGggrrrrGGggrrrr"/>
    <tlsState time="2206.00" id="C0" programID="custom" phase="1" state="yyyyrrrryyyyrrrr"/>
    <tlsState time="2209.00" id="C0" programID="custom" phase="2" state="rrrrGGggrrrrGGgg"/>
    <tlsState time="2218.00" id="C0" programID="custom" phase="3" state="rrrryyyyrrrryyyy"/>
    <tlsState time="2221.00" id="C0" programID="custom" phase="0" state="GGggrrrrGGggrrrr"/>
    <tlsState time="2228.00" id="B0" programID="custom" phase="1" state="yyyyrrrryyyyrrrr"/>
    <tlsState time="2231.00" id="B0" programID="custom" phase="2" state="rrrrGGggrrrrGGgg"/>
    <tlsState time="2235.00" id="C0" programID="custom" phase="1" state="yyyyrrrryyyyrrrr"/>
    <tlsState time="2238.00" id="C0" programID="custom" phase="2" state="rrrrGGggrrrrGGgg"/>
    <tlsState time="2280.00" id="B0" programID="custom" phase="3" state="rrrryyyyrrrryyyy"/>
    <tlsState time="2283.00" id="B0" programID="custom" phase="0" state="GGggrrrrGGggrrrr"/>
    <tlsState time="2288.00" id="B0" programID="custom" phase="1" state="yyyyrrrryyyyrrrr"/>
    <tlsState time="2291.00" id="B0" programID="custom" phase="2" state="rrrrGGggrrrrGGgg"/>
    <tlsState time="2294.00" id="C0" programID="custom" phase="3" state="rrrryyyyrrrryyyy"/>
    <tlsState time="2297.00" id="C0" programID="custom" phase="0" state="GGggrrrrGGggrrrr"/>
    <tlsState time="2315.00" id="C0" programID="custom" phase="1" state="yyyyrrrryyyyrrrr"/>
    <tlsState time="2318.00" id="C0" programID="custom" phase="2" state="rrrrGGggrrrrGGgg"/>
    <tlsState time="2332.00" id="B0" programID="custom" phase="3" state="rrrryyyyrrrryyyy"/>
    <tlsState time="2335.00" id="B0" programID="custom" phase="0" state="GGggrrrrGGggrrrr"/>
    <tlsState time="2358.00" id="C0" programID="custom" phase="3" state="rrrryyyyrrrryyyy"/>
    <tlsState time="2361.00" id="C0" programID="custom" phase="0" state="GGggrrrrGGggrrrr"/>
    <tlsState time="2369.00" id="B0" programID="custom" phase="1" state="yyyyrrrryyyyrrrr"/>
    <tlsState time="2372.00" id="B0" programID="custom" phase="2" state="rrrrGGggrrrrGGgg"/>
    <tlsState time="2388.00" id="C0" programID="custom" phase="1" state="yyyyrrrryyyyrrrr"/>
    <tlsState time="2391.00" id="C0" programID="custom" phase="2" state="rrrrGGggrrrrGGgg"/>
    <tlsState time="2422.00" id="B0" programID="custom" phase="3" state="rrrryyyyrrrryyyy"/>
    <tlsState time="2425.00" id="B0" programID="custom" phase="0" state="GGggrrrrGGggrrrr"/>
    <tlsState time="2437.00" id="C0" programID="custom" phase="3" state="rrrryyyyrrrryyyy"/>
    <tlsState time="2440.00" id="C0" programID="custom" phase="0" state="GGggrrrrGGggrrrr"/>
    <tlsState time="2456.00" id="C0" programID="custom" phase="1" state="yyyyrrrryyyyrrrr"/>
    <tlsState time="2458.00" id="B0" programID="custom" phase="1" state="yyyyrrrryyyyrrrr"/>
    <tlsState time="2459.00" id="C0" programID="custom" phase="2" state="rrrrGGggrrrrGGgg"/>
    <tlsState time="2461.00" id="B0" programID="custom" phase="2" state="rrrrGGggrrrrGGgg"/>
    <tlsState time="2464.00" id="C0" programID="custom" phase="3" state="rrrryyyyrrrryyyy"/>
    <tlsState time="2467.00" id="C0" programID="custom" phase="0" state="GGggrrrrGGggrrrr"/>
    <tlsState time="2483.00" id="C0" programID="custom" phase="1" state="yyyyrrrryyyyrrrr"/>
    <tlsState time="2486.00" id="C0" programID="custom" phase="2" state="rrrrGGggrrrrGGgg"/>
    <tlsState time="2505.00" id="B0" programID="custom" phase="3" state="rrrryyyyrrrryyyy"/>
    <tlsState time="2508.00" id="B0" programID="custom" phase="0" state="GGggrrrrGGggrrrr"/>
    <tlsState time="2513.00" id="B0" programID="custom" phase="1" state="yyyyrrrryyyyrrrr"/>
    <tlsState time="2516.00" id="B0" programID="custom" phase="2" state="rrrrGGggrrrrGGgg"/>
    <tlsState time="2550.00" id="C0" programID="custom" phase="3" state="rrrryyyyrrrryyyy"/>
    <tlsState time="2550.00" id="B0" programID="custom" phase="3" state="rrrryyyyrrrryyyy"/>
    <tlsState time="2553.00" id="C0" programID="custom" phase="0" state="GGggrrrrGGggrrrr"/>
    <tlsState time="2553.00" id="B0" programID="custom" phase="0" state="GGggrrrrGGggrrrr"/>
    <tlsState time="2584.00" id="C0" programID="custom" phase="1" state="yyyyrrrryyyyrrrr"/>
    <tlsState time="2587.00" id="C0" programID="custom" phase="2" state="rrrrGGggrrrrGGgg"/>
    <tlsState time="2588.00" id="B0" programID="custom" phase="1" state="yyyyrrrryyyyrrrr"/>
    <tlsState time="2591.00" id="B0" programID="custom" phase="2" state="rrrrGGggrrrrGGgg"/>