<?xml version="1.0" encoding="UTF-8"?>

<!-- generated on Tue Apr 15 15:11:31 2014 by SUMO netconvert Version dev-SVN-r16196
<?xml version="1.0" encoding="UTF-8"?>

<configuration xmlns:xsi="http://www.w3.org/2001/XMLSchema-instance" xsi:noNamespaceSchemaLocation="http://sumo-sim.org/xsd/netconvertConfiguration.xsd">

    <input>
        <node-files value="input_plain.nod.xml"/>
        <edge-files value="input_plain.edg.xml"/>
    </input>

    <output>
        <plain-output-prefix value="plain"/>
    </output>

    <processing>
        <no-turnarounds value="true"/>
        <crossings.guess value="true"/>
    </processing>

    <report>
        <xml-validation value="never"/>
    </report>

</configuration>
-->

<edges version="0.13" xmlns:xsi="http://www.w3.org/2001/XMLSchema-instance" xsi:noNamespaceSchemaLocation="http://sumo-sim.org/xsd/edges_file.xsd">
    <edge id="CE" from="C" to="E" priority="2" numLanes="4" speed="13.89" shape="118.84,95.12 176.09,95.03 200.00,100.00">
        <lane index="0" allow="pedestrian" width="3.00"/>
        <lane index="1" disallow="all" width="1.50"/>
        <lane index="2" allow="passenger"/>
        <lane index="3" allow="passenger"/>
    </edge>
    <edge id="CN" from="C" to="N" priority="2" numLanes="4" speed="13.89" shape="107.66,118.53 119.14,174.64 100.00,200.00">
        <lane index="0" allow="pedestrian" width="3.00"/>
        <lane index="1" disallow="all" width="1.50"/>
        <lane index="2" allow="passenger"/>
        <lane index="3" allow="passenger"/>
    </edge>
    <edge id="CS" from="C" to="S" priority="2" numLanes="4" speed="13.89" shape="94.97,80.36 94.74,18.32 100.00,0.00">
        <lane index="0" allow="pedestrian" width="3.00"/>
        <lane index="1" disallow="all" width="1.50"/>
        <lane index="2" allow="passenger"/>
        <lane index="3" allow="passenger"/>
    </edge>
    <edge id="CW" from="C" to="W" priority="2" numLanes="4" speed="13.89" shape="82.75,104.99 69.90,99.83 0.00,100.00">
        <lane index="0" allow="pedestrian" width="3.00"/>
        <lane index="1" disallow="all" width="1.50"/>
        <lane index="2" allow="passenger"/>
        <lane index="3" allow="passenger"/>
    </edge>
    <edge id="EC" from="E" to="C" priority="2" numLanes="4" speed="13.89" shape="200.00,100.00 175.81,106.22 118.84,106.22">
        <lane index="0" allow="pedestrian" width="3.00"/>
        <lane index="1" disallow="all" width="1.50"/>
        <lane index="2" allow="passenger"/>
        <lane index="3" allow="passenger"/>
    </edge>
    <edge id="NC" from="N" to="C" priority="2" numLanes="4" speed="13.89" shape="100.00,200.00 106.94,175.24 93.75,118.81">
        <lane index="0" allow="pedestrian" width="3.00"/>
        <lane index="1" disallow="all" width="1.50"/>
        <lane index="2" allow="passenger"/>
        <lane index="3" allow="passenger"/>
    </edge>
    <edge id="SC" from="S" to="C" priority="2" numLanes="4" speed="13.89" shape="100.00,0.00 107.83,18.17 107.19,80.27">
        <lane index="0" allow="pedestrian" width="3.00"/>
        <lane index="1" disallow="all" width="1.50"/>
        <lane index="2" allow="passenger"/>
        <lane index="3" allow="passenger"/>
    </edge>
    <edge id="WC" from="W" to="C" priority="2" numLanes="4" speed="13.89" shape="0.00,100.00 70.05,99.53 82.28,93.43">
        <lane index="0" allow="pedestrian" width="3.00"/>
        <lane index="1" disallow="all" width="1.50"/>
        <lane index="2" allow="passenger"/>
        <lane index="3" allow="passenger"/>
    </edge>
</edges>
