<?xml version="1.0" encoding="UTF-8"?>

<!-- generated on Mon Feb 17 15:30:45 2020 by Eclipse SUMO netconvert Version v1_5_0+0130-ceb0a01
This data file and the accompanying materials
are made available under the terms of the Eclipse Public License v2.0
which accompanies this distribution, and is available at
http://www.eclipse.org/legal/epl-v20.html
SPDX-License-Identifier: EPL-2.0
<configuration xmlns:xsi="http://www.w3.org/2001/XMLSchema-instance" xsi:noNamespaceSchemaLocation="http://sumo.dlr.de/xsd/netconvertConfiguration.xsd">

    <input>
        <node-files value="input_plain.nod.xml"/>
        <edge-files value="input_plain.edg.xml"/>
        <connection-files value="input_plain.con.xml"/>
    </input>

    <output>
        <write-license value="true"/>
        <output-file value="net.net.xml"/>
    </output>

    <report>
        <xml-validation value="never"/>
        <aggregate-warnings value="5"/>
    </report>

</configuration>
-->

<net version="1.6" junctionCornerDetail="5" limitTurnSpeed="5.50" xmlns:xsi="http://www.w3.org/2001/XMLSchema-instance" xsi:noNamespaceSchemaLocation="http://sumo.dlr.de/xsd/net_file.xsd">

    <location netOffset="100.00,0.00" convBoundary="0.00,0.00,100.00,0.00" origBoundary="-10000000000.00,-10000000000.00,10000000000.00,10000000000.00" projParameter="!"/>

    <edge id=":gneJ0_0" function="internal">
        <lane id=":gneJ0_0_0" index="0" allow="bicycle" speed="13.89" length="3.00" width="1.00" shape="44.50,-3.50 47.50,-3.50"/>
        <lane id=":gneJ0_0_1" index="1" disallow="bicycle" speed="13.89" length="3.00" width="3.00" shape="44.50,-1.50 47.50,-1.50"/>
    </edge>

    <edge id="beg" from="W" to="gneJ0" priority="2">
        <lane id="beg_0" index="0" allow="bicycle" speed="13.89" length="44.50" width="1.00" shape="0.00,-3.50 44.50,-3.50"/>
        <lane id="beg_1" index="1" disallow="bicycle" speed="13.89" length="44.50" width="3.00" shape="0.00,-1.50 44.50,-1.50"/>
    </edge>
    <edge id="end" from="gneJ0" to="C" priority="2">
        <lane id="end_0" index="0" speed="13.89" length="52.50" width="4.00" shape="47.50,-2.00 100.00,-2.00"/>
    </edge>

    <junction id="C" type="dead_end" x="100.00" y="0.00" incLanes="end_0" intLanes="" shape="100.00,-4.00 100.00,0.00"/>
    <junction id="W" type="dead_end" x="0.00" y="0.00" incLanes="" intLanes="" shape="0.00,0.00 0.00,-4.00"/>
    <junction id="gneJ0" type="priority" x="46.00" y="0.00" incLanes="beg_0 beg_1" intLanes=":gneJ0_0_0 :gneJ0_0_1" shape="47.50,0.00 47.50,-4.00 44.50,-4.00 44.50,0.00">
        <request index="0" response="00" foes="00" cont="0"/>
        <request index="1" response="00" foes="00" cont="0"/>
    </junction>

    <connection from="beg" to="end" fromLane="0" toLane="0" via=":gneJ0_0_0" dir="s" state="M"/>
    <connection from="beg" to="end" fromLane="1" toLane="0" via=":gneJ0_0_1" dir="s" state="M"/>

    <connection from=":gneJ0_0" to="end" fromLane="0" toLane="0" dir="s" state="M"/>
    <connection from=":gneJ0_0" to="end" fromLane="1" toLane="0" dir="s" state="M"/>

</net>
