<?xml version="1.0" encoding="UTF-8"?>

<!-- generated on Mon Mar 23 09:25:26 2015 by SUMO netconvert Version dev-SVN-r18123I
<?xml version="1.0" encoding="UTF-8"?>

<configuration xmlns:xsi="http://www.w3.org/2001/XMLSchema-instance" xsi:noNamespaceSchemaLocation="http://sumo.dlr.de/xsd/netconvertConfiguration.xsd">

    <input>
        <osm-files value="osm.xml"/>
    </input>

    <output>
        <output-file value="/scr2/texttest_tmp/tools.23Mar092525.32541/tools/import/OSM/build_passenger/net.net.xml"/>
    </output>

    <projection>
        <proj.utm value="true"/>
    </projection>

    <tls_building>
        <tls.discard-simple value="true"/>
        <tls.join value="true"/>
    </tls_building>

    <ramp_guessing>
        <ramps.guess value="true"/>
    </ramp_guessing>

    <edge_removal>
        <keep-edges.by-vclass value="passenger"/>
        <remove-edges.isolated value="true"/>
    </edge_removal>

    <processing>
        <osm.railway.oneway-default value="true"/>
        <geometry.remove value="true"/>
        <roundabouts.guess value="true"/>
        <junctions.join value="true"/>
        <tls.guess-signals value="true"/>
    </processing>

    <report>
        <verbose value="true"/>
    </report>

</configuration>
-->

<net version="0.13" xmlns:xsi="http://www.w3.org/2001/XMLSchema-instance" xsi:noNamespaceSchemaLocation="http://sumo.dlr.de/xsd/net_file.xsd">

    <location netOffset="-398933.42,-5809189.04" convBoundary="0.00,0.00,2056.17,946.75" origBoundary="13.453860,52.423643,13.575739,52.459735" projParameter="+proj=utm +zone=33 +ellps=WGS84 +datum=WGS84 +units=m +no_defs"/>

    <edge id=":143308546#0-AddedOffRampNode_0" function="internal">
        <lane id=":143308546#0-AddedOffRampNode_0_0" index="0" speed="13.89" length="3.48" shape="1178.09,709.59 1173.74,710.41"/>
        <lane id=":143308546#0-AddedOffRampNode_0_1" index="1" speed="13.89" length="3.48" shape="1178.09,709.59 1175.71,707.76"/>
        <lane id=":143308546#0-AddedOffRampNode_0_2" index="2" speed="13.89" length="3.48" shape="1180.06,706.95 1177.68,705.11"/>
    </edge>
    <edge id=":143308546#6-AddedOnRampNode_0" function="internal">
        <lane id=":143308546#6-AddedOnRampNode_0_0" index="0" speed="13.89" length="3.00" shape="981.58,597.63 978.65,596.95"/>
        <lane id=":143308546#6-AddedOnRampNode_0_1" index="1" speed="13.89" length="3.00" shape="982.38,594.43 979.46,593.75"/>
    </edge>
    <edge id=":1560223241_0" function="internal">
        <lane id=":1560223241_0_0" index="0" speed="13.89" length="4.82" shape="2056.19,179.99 2057.41,180.83 2057.82,181.66 2057.39,182.48 2056.14,183.29"/>
    </edge>
    <edge id=":1560223378_0" function="internal">
        <lane id=":1560223378_0_0" index="0" speed="13.89" length="4.00" shape="1034.37,296.04 1031.61,299.61"/>
        <lane id=":1560223378_0_1" index="1" speed="13.89" length="4.00" shape="1034.05,292.76 1031.34,296.32"/>
        <lane id=":1560223378_0_2" index="2" speed="13.89" length="4.00" shape="1034.05,292.76 1031.06,293.03"/>
    </edge>
    <edge id=":1560223378_3" function="internal">
        <lane id=":1560223378_3_0" index="0" speed="13.89" length="2.41" shape="1034.05,292.76 1032.74,292.06 1032.25,291.28"/>
    </edge>
    <edge id=":1560223378_7" function="internal">
        <lane id=":1560223378_7_0" index="0" speed="13.89" length="2.41" shape="1032.25,291.28 1032.58,290.42 1033.73,289.48"/>
    </edge>
    <edge id=":1560223378_4" function="internal">
        <lane id=":1560223378_4_0" index="0" speed="13.89" length="2.93" shape="1030.52,286.45 1033.42,286.19"/>
        <lane id=":1560223378_4_1" index="1" speed="13.89" length="2.93" shape="1030.79,289.74 1033.73,289.48"/>
    </edge>
    <edge id=":1560223378_6" function="internal">
        <lane id=":1560223378_6_0" index="0" speed="13.89" length="2.41" shape="1030.79,289.74 1032.09,290.46 1032.57,291.25"/>
    </edge>
    <edge id=":1560223378_8" function="internal">
        <lane id=":1560223378_8_0" index="0" speed="13.89" length="2.41" shape="1032.57,291.25 1032.23,292.10 1031.06,293.03"/>
    </edge>
    <edge id=":1560223382_0" function="internal">
        <lane id=":1560223382_0_0" index="0" speed="13.89" length="5.03" shape="1047.06,297.96 1046.76,296.61 1046.10,295.69 1045.08,295.20 1043.70,295.14"/>
    </edge>
    <edge id=":1560223382_1" function="internal">
        <lane id=":1560223382_1_0" index="0" speed="13.89" length="12.91" shape="1047.06,297.96 1047.11,293.69 1047.98,290.53 1049.68,288.47 1052.20,287.52"/>
    </edge>
    <edge id=":1560223382_2" function="internal">
        <lane id=":1560223382_2_0" index="0" speed="13.89" length="4.82" shape="1047.06,297.96 1047.79,296.67 1048.58,296.20 1049.43,296.55 1050.35,297.72"/>
    </edge>
    <edge id=":1560223382_3" function="internal">
        <lane id=":1560223382_3_0" index="0" speed="13.89" length="5.14" shape="1053.08,294.06 1051.80,294.44 1050.91,295.18 1050.43,296.27 1050.35,297.72"/>
    </edge>
    <edge id=":1560223382_4" function="internal">
        <lane id=":1560223382_4_0" index="0" speed="13.89" length="9.38" shape="1053.08,294.06 1043.70,295.14"/>
        <lane id=":1560223382_4_1" index="1" speed="13.89" length="9.38" shape="1052.64,290.79 1043.39,291.85"/>
    </edge>
    <edge id=":1560223382_6" function="internal">
        <lane id=":1560223382_6_0" index="0" speed="13.89" length="2.41" shape="1052.64,290.79 1051.30,290.14 1050.79,289.38"/>
    </edge>
    <edge id=":1560223382_11" function="internal">
        <lane id=":1560223382_11_0" index="0" speed="13.89" length="2.41" shape="1050.79,289.38 1051.08,288.50 1052.20,287.52"/>
    </edge>
    <edge id=":1560223382_7" function="internal">
        <lane id=":1560223382_7_0" index="0" speed="13.89" length="9.13" shape="1042.75,285.29 1051.76,284.25"/>
        <lane id=":1560223382_7_1" index="1" speed="13.89" length="9.13" shape="1043.07,288.57 1052.20,287.52"/>
    </edge>
    <edge id=":1560223382_9" function="internal">
        <lane id=":1560223382_9_0" index="0" speed="13.89" length="4.44" shape="1043.07,288.57 1045.98,288.90 1047.18,289.81"/>
    </edge>
    <edge id=":1560223382_10" function="internal">
        <lane id=":1560223382_10_0" index="0" speed="13.89" length="2.41" shape="1043.07,288.57 1044.38,289.27 1044.87,290.05"/>
    </edge>
    <edge id=":1560223382_12" function="internal">
        <lane id=":1560223382_12_0" index="0" speed="13.89" length="8.80" shape="1047.18,289.81 1048.16,290.54 1049.62,293.48 1050.35,297.72"/>
    </edge>
    <edge id=":1560223382_13" function="internal">
        <lane id=":1560223382_13_0" index="0" speed="13.89" length="2.41" shape="1044.87,290.05 1044.54,290.91 1043.39,291.85"/>
    </edge>
    <edge id=":1560223404_0" function="internal">
        <lane id=":1560223404_0_0" index="0" speed="13.89" length="7.16" shape="880.84,314.75 880.56,312.29 879.90,310.57 878.87,309.60 877.46,309.38"/>
    </edge>
    <edge id=":1560223404_1" function="internal">
        <lane id=":1560223404_1_0" index="0" speed="13.89" length="22.59" shape="884.13,314.65 884.37,307.09 885.19,301.06 885.99,296.22 886.16,292.19"/>
    </edge>
    <edge id=":1560223404_2" function="internal">
        <lane id=":1560223404_2_0" index="0" speed="13.89" length="9.83" shape="887.43,314.55 887.65,308.94 888.71,304.86"/>
    </edge>
    <edge id=":1560223404_3" function="internal">
        <lane id=":1560223404_3_0" index="0" speed="13.89" length="2.41" shape="887.43,314.55 888.22,313.28 889.03,312.84"/>
    </edge>
    <edge id=":1560223404_18" function="internal">
        <lane id=":1560223404_18_0" index="0" speed="13.89" length="6.13" shape="888.71,304.86 890.62,302.29 893.36,301.25"/>
    </edge>
    <edge id=":1560223404_19" function="internal">
        <lane id=":1560223404_19_0" index="0" speed="13.89" length="2.41" shape="889.03,312.84 889.87,313.23 890.73,314.44"/>
    </edge>
    <edge id=":1560223404_4" function="internal">
        <lane id=":1560223404_4_0" index="0" speed="13.89" length="5.45" shape="894.25,311.11 892.68,311.44 891.56,312.10 890.91,313.11 890.73,314.44"/>
    </edge>
    <edge id=":1560223404_5" function="internal">
        <lane id=":1560223404_5_0" index="0" speed="13.89" length="16.99" shape="894.25,311.11 889.26,311.04 885.86,310.23 882.45,309.42 877.46,309.38"/>
        <lane id=":1560223404_5_1" index="1" speed="13.89" length="16.99" shape="893.96,307.82 888.96,307.76 885.55,306.94 882.14,306.13 877.15,306.10"/>
    </edge>
    <edge id=":1560223404_7" function="internal">
        <lane id=":1560223404_7_0" index="0" speed="13.89" length="4.52" shape="893.66,304.53 890.83,303.98 889.69,302.80"/>
    </edge>
    <edge id=":1560223404_8" function="internal">
        <lane id=":1560223404_8_0" index="0" speed="13.89" length="2.63" shape="893.66,304.53 892.35,303.82 891.87,303.04 891.95,302.83"/>
    </edge>
    <edge id=":1560223404_20" function="internal">
        <lane id=":1560223404_20_0" index="0" speed="13.89" length="11.41" shape="889.69,302.80 888.64,301.73 887.08,297.80 886.16,292.19"/>
    </edge>
    <edge id=":1560223404_21" function="internal">
        <lane id=":1560223404_21_0" index="0" speed="13.89" length="2.19" shape="891.95,302.83 892.20,302.18 893.36,301.25"/>
    </edge>
    <edge id=":1560223404_9" function="internal">
        <lane id=":1560223404_9_0" index="0" speed="13.89" length="7.76" shape="889.44,291.92 889.90,294.67 890.65,296.59 891.71,297.69 893.07,297.96"/>
    </edge>
    <edge id=":1560223404_10" function="internal">
        <lane id=":1560223404_10_0" index="0" speed="13.89" length="22.56" shape="889.44,291.92 889.82,296.84 890.20,303.17 890.53,309.51 890.73,314.44"/>
    </edge>
    <edge id=":1560223404_11" function="internal">
        <lane id=":1560223404_11_0" index="0" speed="13.89" length="10.90" shape="889.44,291.92 889.13,297.63 886.98,301.90 886.66,302.13"/>
    </edge>
    <edge id=":1560223404_12" function="internal">
        <lane id=":1560223404_12_0" index="0" speed="13.89" length="2.67" shape="889.44,291.92 888.72,293.22 887.94,293.70 887.70,293.60"/>
    </edge>
    <edge id=":1560223404_22" function="internal">
        <lane id=":1560223404_22_0" index="0" speed="13.89" length="10.49" shape="886.66,302.13 882.98,304.72 877.15,306.10"/>
    </edge>
    <edge id=":1560223404_23" function="internal">
        <lane id=":1560223404_23_0" index="0" speed="13.89" length="2.15" shape="887.70,293.60 887.08,293.36 886.16,292.19"/>
    </edge>
    <edge id=":1560223404_13" function="internal">
        <lane id=":1560223404_13_0" index="0" speed="13.89" length="11.43" shape="876.20,296.24 880.66,295.62 883.81,294.74 885.64,293.59 886.16,292.19"/>
    </edge>
    <edge id=":1560223404_14" function="internal">
        <lane id=":1560223404_14_0" index="0" speed="13.89" length="17.05" shape="876.20,296.24 881.21,296.27 884.63,297.08 888.05,297.90 893.07,297.96"/>
        <lane id=":1560223404_14_1" index="1" speed="13.89" length="17.05" shape="876.51,299.53 881.52,299.56 884.94,300.37 888.36,301.19 893.36,301.25"/>
    </edge>
    <edge id=":1560223404_16" function="internal">
        <lane id=":1560223404_16_0" index="0" speed="13.89" length="11.53" shape="876.83,302.81 882.76,303.05 887.05,305.07 887.54,305.77"/>
    </edge>
    <edge id=":1560223404_17" function="internal">
        <lane id=":1560223404_17_0" index="0" speed="13.89" length="2.64" shape="876.83,302.81 878.14,303.51 878.63,304.30 878.55,304.51"/>
    </edge>
    <edge id=":1560223404_24" function="internal">
        <lane id=":1560223404_24_0" index="0" speed="13.89" length="9.44" shape="887.54,305.77 889.71,308.87 890.73,314.44"/>
    </edge>
    <edge id=":1560223404_25" function="internal">
        <lane id=":1560223404_25_0" index="0" speed="13.89" length="2.18" shape="878.55,304.51 878.30,305.16 877.15,306.10"/>
    </edge>
    <edge id=":1560223468_0" function="internal">
        <lane id=":1560223468_0_0" index="0" speed="13.89" length="2.58" shape="815.59,313.80 813.11,314.04"/>
        <lane id=":1560223468_0_1" index="1" speed="13.89" length="2.58" shape="815.37,310.51 812.70,310.76"/>
    </edge>
    <edge id=":1560223468_2" function="internal">
        <lane id=":1560223468_2_0" index="0" speed="13.89" length="2.41" shape="815.37,310.51 814.08,309.77 813.61,308.97"/>
    </edge>
    <edge id=":1560223468_7" function="internal">
        <lane id=":1560223468_7_0" index="0" speed="13.89" length="2.41" shape="813.61,308.97 813.97,308.12 815.15,307.22"/>
    </edge>
    <edge id=":1560223468_3" function="internal">
        <lane id=":1560223468_3_0" index="0" speed="13.89" length="3.96" shape="811.87,304.22 814.71,300.63"/>
        <lane id=":1560223468_3_1" index="1" speed="13.89" length="3.96" shape="812.28,307.49 814.93,303.92"/>
        <lane id=":1560223468_3_2" index="2" speed="13.89" length="3.96" shape="812.28,307.49 815.15,307.22"/>
    </edge>
    <edge id=":1560223468_6" function="internal">
        <lane id=":1560223468_6_0" index="0" speed="13.89" length="2.52" shape="812.28,307.49 813.62,308.15 814.13,308.92 814.09,309.02"/>
    </edge>
    <edge id=":1560223468_8" function="internal">
        <lane id=":1560223468_8_0" index="0" speed="13.89" length="2.30" shape="814.09,309.02 813.82,309.79 812.70,310.76"/>
    </edge>
    <edge id=":1560223484_0" function="internal">
        <lane id=":1560223484_0_0" index="0" speed="13.89" length="5.81" shape="619.27,334.25 618.01,334.62 617.07,335.46 616.44,336.76 616.13,338.53"/>
    </edge>
    <edge id=":1560223484_1" function="internal">
        <lane id=":1560223484_1_0" index="0" speed="13.89" length="9.61" shape="619.27,334.25 609.71,335.21"/>
        <lane id=":1560223484_1_1" index="1" speed="13.89" length="9.61" shape="618.95,330.97 609.38,331.92"/>
    </edge>
    <edge id=":1560223484_3" function="internal">
        <lane id=":1560223484_3_0" index="0" speed="13.89" length="2.41" shape="618.95,330.97 617.64,330.27 617.14,329.49"/>
    </edge>
    <edge id=":1560223484_11" function="internal">
        <lane id=":1560223484_11_0" index="0" speed="13.89" length="2.41" shape="617.14,329.49 617.47,328.63 618.63,327.68"/>
    </edge>
    <edge id=":1560223484_4" function="internal">
        <lane id=":1560223484_4_0" index="0" speed="13.89" length="9.63" shape="608.72,325.36 618.30,324.40"/>
        <lane id=":1560223484_4_1" index="1" speed="13.89" length="9.63" shape="609.05,328.64 618.63,327.68"/>
    </edge>
    <edge id=":1560223484_6" function="internal">
        <lane id=":1560223484_6_0" index="0" speed="13.89" length="4.97" shape="609.05,328.64 612.46,328.96 613.69,329.89"/>
    </edge>
    <edge id=":1560223484_7" function="internal">
        <lane id=":1560223484_7_0" index="0" speed="13.89" length="2.41" shape="609.05,328.64 610.36,329.34 610.85,330.12"/>
    </edge>
    <edge id=":1560223484_12" function="internal">
        <lane id=":1560223484_12_0" index="0" speed="13.89" length="9.42" shape="613.69,329.89 614.78,330.71 616.00,333.90 616.13,338.53"/>
    </edge>
    <edge id=":1560223484_13" function="internal">
        <lane id=":1560223484_13_0" index="0" speed="13.89" length="2.41" shape="610.85,330.12 610.53,330.98 609.38,331.92"/>
    </edge>
    <edge id=":1560223484_8" function="internal">
        <lane id=":1560223484_8_0" index="0" speed="13.89" length="5.23" shape="612.84,338.27 612.74,336.80 612.19,335.80 611.18,335.27 609.71,335.21"/>
    </edge>
    <edge id=":1560223484_9" function="internal">
        <lane id=":1560223484_9_0" index="0" speed="13.89" length="13.01" shape="612.84,338.27 613.50,333.82 614.68,330.57 616.39,328.53 618.63,327.68"/>
    </edge>
    <edge id=":1560223484_10" function="internal">
        <lane id=":1560223484_10_0" index="0" speed="13.89" length="4.82" shape="612.84,338.27 613.76,337.10 614.61,336.75 615.40,337.23 616.13,338.53"/>
    </edge>
    <edge id=":1560223591_0" function="internal">
        <lane id=":1560223591_0_0" index="0" speed="18.06" length="5.00" shape="611.15,449.63 609.78,449.71 608.77,450.21 608.11,451.13 607.81,452.46"/>
    </edge>
    <edge id=":1560223591_1" function="internal">
        <lane id=":1560223591_1_0" index="0" speed="18.06" length="10.25" shape="611.15,449.63 608.40,449.01 606.48,447.67 605.40,445.62 605.14,442.86"/>
    </edge>
    <edge id=":1560223591_2" function="internal">
        <lane id=":1560223591_2_0" index="0" speed="22.22" length="4.82" shape="611.15,449.63 609.99,448.70 609.64,447.85 610.12,447.06 611.42,446.34"/>
    </edge>
    <edge id=":1560223591_3" function="internal">
        <lane id=":1560223591_3_0" index="0" speed="18.06" length="5.05" shape="608.44,443.03 608.57,444.38 609.11,445.38 610.06,446.03 611.42,446.34"/>
    </edge>
    <edge id=":1560223591_4" function="internal">
        <lane id=":1560223591_4_0" index="0" speed="13.89" length="9.45" shape="608.44,443.03 607.81,452.46"/>
    </edge>
    <edge id=":1560223591_5" function="internal">
        <lane id=":1560223591_5_0" index="0" speed="13.89" length="4.82" shape="608.44,443.03 607.55,444.22 606.71,444.59 605.90,444.14 605.14,442.86"/>
    </edge>
    <edge id=":1560223591_6" function="internal">
        <lane id=":1560223591_6_0" index="0" speed="13.89" length="9.35" shape="604.52,452.19 605.14,442.86"/>
    </edge>
    <edge id=":1560223591_7" function="internal">
        <lane id=":1560223591_7_0" index="0" speed="18.06" length="10.33" shape="604.52,452.19 605.14,449.43 606.51,447.54 608.60,446.51 611.42,446.34"/>
    </edge>
    <edge id=":1560223591_8" function="internal">
        <lane id=":1560223591_8_0" index="0" speed="13.89" length="4.82" shape="604.52,452.19 605.44,451.03 606.30,450.68 607.08,451.16 607.81,452.46"/>
    </edge>
    <edge id=":1560223615_0" function="internal">
        <lane id=":1560223615_0_0" index="0" speed="22.22" length="5.01" shape="724.66,459.04 723.29,459.14 722.28,459.65 721.64,460.58 721.35,461.92"/>
    </edge>
    <edge id=":1560223615_1" function="internal">
        <lane id=":1560223615_1_0" index="0" speed="22.22" length="9.49" shape="724.66,459.04 715.21,458.30"/>
    </edge>
    <edge id=":1560223615_2" function="internal">
        <lane id=":1560223615_2_0" index="0" speed="22.22" length="2.41" shape="724.66,459.04 723.49,458.13 723.14,457.28"/>
    </edge>
    <edge id=":1560223615_9" function="internal">
        <lane id=":1560223615_9_0" index="0" speed="22.22" length="2.41" shape="723.14,457.28 723.61,456.48 724.91,455.75"/>
    </edge>
    <edge id=":1560223615_3" function="internal">
        <lane id=":1560223615_3_0" index="0" speed="22.22" length="9.46" shape="715.48,455.01 724.91,455.75"/>
    </edge>
    <edge id=":1560223615_4" function="internal">
        <lane id=":1560223615_4_0" index="0" speed="22.22" length="5.12" shape="715.48,455.01 718.21,455.64 720.09,457.00"/>
    </edge>
    <edge id=":1560223615_5" function="internal">
        <lane id=":1560223615_5_0" index="0" speed="22.22" length="2.41" shape="715.48,455.01 716.64,455.93 716.99,456.79"/>
    </edge>
    <edge id=":1560223615_10" function="internal">
        <lane id=":1560223615_10_0" index="0" speed="22.22" length="5.18" shape="720.09,457.00 721.14,459.09 721.35,461.92"/>
    </edge>
    <edge id=":1560223615_11" function="internal">
        <lane id=":1560223615_11_0" index="0" speed="22.22" length="2.41" shape="716.99,456.79 716.51,457.58 715.21,458.30"/>
    </edge>
    <edge id=":1560223615_6" function="internal">
        <lane id=":1560223615_6_0" index="0" speed="22.22" length="5.05" shape="718.06,461.71 717.96,460.31 717.45,459.28 716.53,458.61 715.21,458.30"/>
    </edge>
    <edge id=":1560223615_7" function="internal">
        <lane id=":1560223615_7_0" index="0" speed="22.22" length="10.37" shape="718.06,461.71 718.65,458.92 719.98,457.00 722.07,455.95 724.91,455.75"/>
    </edge>
    <edge id=":1560223615_8" function="internal">
        <lane id=":1560223615_8_0" index="0" speed="22.22" length="4.82" shape="718.06,461.71 718.97,460.53 719.82,460.17 720.61,460.63 721.35,461.92"/>
    </edge>
    <edge id=":1560223635_0" function="internal">
        <lane id=":1560223635_0_0" index="0" speed="18.06" length="5.73" shape="900.89,474.65 900.52,473.39 899.70,472.45 898.43,471.83 896.69,471.54"/>
    </edge>
    <edge id=":1560223635_1" function="internal">
        <lane id=":1560223635_1_0" index="0" speed="13.89" length="9.59" shape="900.89,474.65 899.97,465.10"/>
    </edge>
    <edge id=":1560223635_2" function="internal">
        <lane id=":1560223635_2_0" index="0" speed="13.89" length="2.41" shape="900.89,474.65 901.59,473.34 902.37,472.85"/>
    </edge>
    <edge id=":1560223635_9" function="internal">
        <lane id=":1560223635_9_0" index="0" speed="13.89" length="2.41" shape="902.37,472.85 903.23,473.18 904.17,474.33"/>
    </edge>
    <edge id=":1560223635_3" function="internal">
        <lane id=":1560223635_3_0" index="0" speed="13.89" length="9.59" shape="903.26,464.79 904.17,474.33"/>
    </edge>
    <edge id=":1560223635_4" function="internal">
        <lane id=":1560223635_4_0" index="0" speed="18.06" length="5.42" shape="903.26,464.79 903.11,467.93 902.04,469.94"/>
    </edge>
    <edge id=":1560223635_5" function="internal">
        <lane id=":1560223635_5_0" index="0" speed="13.89" length="2.41" shape="903.26,464.79 902.55,466.10 901.77,466.59"/>
    </edge>
    <edge id=":1560223635_10" function="internal">
        <lane id=":1560223635_10_0" index="0" speed="18.06" length="5.77" shape="902.04,469.94 901.96,470.10 899.83,471.30 896.69,471.54"/>
    </edge>
    <edge id=":1560223635_11" function="internal">
        <lane id=":1560223635_11_0" index="0" speed="13.89" length="2.41" shape="901.77,466.59 900.91,466.26 899.97,465.10"/>
    </edge>
    <edge id=":1560223635_6" function="internal">
        <lane id=":1560223635_6_0" index="0" speed="18.06" length="5.21" shape="896.92,468.25 898.37,468.14 899.37,467.57 899.90,466.56 899.97,465.10"/>
    </edge>
    <edge id=":1560223635_7" function="internal">
        <lane id=":1560223635_7_0" index="0" speed="18.06" length="10.44" shape="896.92,468.25 899.89,468.80 902.09,469.99 903.52,471.84 904.17,474.33"/>
    </edge>
    <edge id=":1560223635_8" function="internal">
        <lane id=":1560223635_8_0" index="0" speed="22.22" length="4.82" shape="896.92,468.25 898.10,469.15 898.45,470.00 897.98,470.80 896.69,471.54"/>
    </edge>
    <edge id=":1560223686_0" function="internal">
        <lane id=":1560223686_0_0" index="0" speed="13.89" length="3.66" shape="906.23,495.65 909.69,498.43"/>
        <lane id=":1560223686_0_1" index="1" speed="13.89" length="3.66" shape="906.23,495.65 906.39,498.53"/>
    </edge>
    <edge id=":1560223686_2" function="internal">
        <lane id=":1560223686_2_0" index="0" speed="13.89" length="2.61" shape="906.23,495.65 905.53,496.96 904.75,497.45 904.56,497.38"/>
    </edge>
    <edge id=":1560223686_5" function="internal">
        <lane id=":1560223686_5_0" index="0" speed="13.89" length="2.21" shape="904.56,497.38 903.89,497.12 902.95,495.97"/>
    </edge>
    <edge id=":1560223686_3" function="internal">
        <lane id=":1560223686_3_0" index="0" speed="13.89" length="3.26" shape="902.99,499.22 902.95,495.97"/>
    </edge>
    <edge id=":1560223686_4" function="internal">
        <lane id=":1560223686_4_0" index="0" speed="13.89" length="2.92" shape="902.99,499.22 903.58,497.77 904.34,497.18 904.72,497.28"/>
    </edge>
    <edge id=":1560223686_6" function="internal">
        <lane id=":1560223686_6_0" index="0" speed="13.89" length="2.15" shape="904.72,497.28 905.28,497.43 906.39,498.53"/>
    </edge>
    <edge id=":1560223905_0" function="internal">
        <lane id=":1560223905_0_0" index="0" speed="22.22" length="5.02" shape="599.14,619.15 597.77,619.25 596.74,619.75 596.07,620.66 595.76,621.99"/>
    </edge>
    <edge id=":1560223905_1" function="internal">
        <lane id=":1560223905_1_0" index="0" speed="22.22" length="10.31" shape="599.14,619.15 596.39,618.55 594.48,617.21 593.42,615.13 593.22,612.32"/>
    </edge>
    <edge id=":1560223905_2" function="internal">
        <lane id=":1560223905_2_0" index="0" speed="22.22" length="4.82" shape="599.14,619.15 597.97,618.24 597.62,617.39 598.09,616.60 599.38,615.86"/>
    </edge>
    <edge id=":1560223905_3" function="internal">
        <lane id=":1560223905_3_0" index="0" speed="22.22" length="5.00" shape="596.52,612.55 596.61,613.91 597.12,614.92 598.05,615.57 599.38,615.86"/>
    </edge>
    <edge id=":1560223905_4" function="internal">
        <lane id=":1560223905_4_0" index="0" speed="22.22" length="9.47" shape="596.52,612.55 595.76,621.99"/>
    </edge>
    <edge id=":1560223905_5" function="internal">
        <lane id=":1560223905_5_0" index="0" speed="22.22" length="2.41" shape="596.52,612.55 595.61,613.73 594.75,614.08"/>
    </edge>
    <edge id=":1560223905_9" function="internal">
        <lane id=":1560223905_9_0" index="0" speed="22.22" length="2.41" shape="594.75,614.08 593.96,613.61 593.22,612.32"/>
    </edge>
    <edge id=":1560223905_6" function="internal">
        <lane id=":1560223905_6_0" index="0" speed="22.22" length="9.40" shape="592.47,621.69 593.22,612.32"/>
    </edge>
    <edge id=":1560223905_7" function="internal">
        <lane id=":1560223905_7_0" index="0" speed="22.22" length="5.12" shape="592.47,621.69 593.12,618.97 594.48,617.09"/>
    </edge>
    <edge id=":1560223905_8" function="internal">
        <lane id=":1560223905_8_0" index="0" speed="22.22" length="2.41" shape="592.47,621.69 593.40,620.53 594.26,620.20"/>
    </edge>
    <edge id=":1560223905_10" function="internal">
        <lane id=":1560223905_10_0" index="0" speed="22.22" length="5.15" shape="594.48,617.09 596.57,616.05 599.38,615.86"/>
    </edge>
    <edge id=":1560223905_11" function="internal">
        <lane id=":1560223905_11_0" index="0" speed="22.22" length="2.41" shape="594.26,620.20 595.05,620.68 595.76,621.99"/>
    </edge>
    <edge id=":1560223943_0" function="internal">
        <lane id=":1560223943_0_0" index="0" speed="22.22" length="5.12" shape="713.27,629.46 711.85,629.43 710.80,629.87 710.12,630.78 709.82,632.17"/>
    </edge>
    <edge id=":1560223943_1" function="internal">
        <lane id=":1560223943_1_0" index="0" speed="22.22" length="10.29" shape="713.27,629.46 710.30,628.96 708.20,628.59 706.10,628.20 703.14,627.62"/>
    </edge>
    <edge id=":1560223943_2" function="internal">
        <lane id=":1560223943_2_0" index="0" speed="22.22" length="10.96" shape="713.27,629.46 710.46,628.57 708.52,626.98 707.45,624.70 707.25,621.72"/>
    </edge>
    <edge id=":1560223943_3" function="internal">
        <lane id=":1560223943_3_0" index="0" speed="22.22" length="4.82" shape="713.27,629.46 712.18,628.44 711.91,627.56 712.46,626.82 713.81,626.21"/>
    </edge>
    <edge id=":1560223943_4" function="internal">
        <lane id=":1560223943_4_0" index="0" speed="22.22" length="6.00" shape="710.54,621.95 710.65,623.59 711.23,624.85 712.29,625.72 713.81,626.21"/>
    </edge>
    <edge id=":1560223943_5" function="internal">
        <lane id=":1560223943_5_0" index="0" speed="22.22" length="10.25" shape="710.54,621.95 710.34,624.95 710.19,627.06 710.04,629.17 709.82,632.17"/>
    </edge>
    <edge id=":1560223943_6" function="internal">
        <lane id=":1560223943_6_0" index="0" speed="22.22" length="5.48" shape="710.54,621.95 709.90,624.94 708.45,626.88"/>
    </edge>
    <edge id=":1560223943_7" function="internal">
        <lane id=":1560223943_7_0" index="0" speed="22.22" length="2.41" shape="710.54,621.95 709.64,623.12 708.78,623.48"/>
    </edge>
    <edge id=":1560223943_16" function="internal">
        <lane id=":1560223943_16_0" index="0" speed="22.22" length="5.48" shape="708.45,626.88 706.20,627.77 703.14,627.62"/>
    </edge>
    <edge id=":1560223943_17" function="internal">
        <lane id=":1560223943_17_0" index="0" speed="22.22" length="2.41" shape="708.78,623.48 707.99,623.01 707.25,621.72"/>
    </edge>
    <edge id=":1560223943_8" function="internal">
        <lane id=":1560223943_8_0" index="0" speed="22.22" length="5.15" shape="703.77,624.39 705.21,624.46 706.27,624.04 706.95,623.12 707.25,621.72"/>
    </edge>
    <edge id=":1560223943_9" function="internal">
        <lane id=":1560223943_9_0" index="0" speed="22.22" length="10.21" shape="703.77,624.39 706.72,624.96 708.78,625.34 710.86,625.71 713.81,626.21"/>
    </edge>
    <edge id=":1560223943_10" function="internal">
        <lane id=":1560223943_10_0" index="0" speed="22.22" length="10.97" shape="703.77,624.39 706.59,625.35 708.54,626.97 709.62,629.24 709.82,632.17"/>
    </edge>
    <edge id=":1560223943_11" function="internal">
        <lane id=":1560223943_11_0" index="0" speed="22.22" length="4.81" shape="703.77,624.39 704.83,625.43 705.07,626.32 704.51,627.05 703.14,627.62"/>
    </edge>
    <edge id=":1560223943_12" function="internal">
        <lane id=":1560223943_12_0" index="0" speed="22.22" length="6.10" shape="706.53,631.94 706.42,630.32 705.81,629.06 704.72,628.16 703.14,627.62"/>
    </edge>
    <edge id=":1560223943_13" function="internal">
        <lane id=":1560223943_13_0" index="0" speed="22.22" length="10.24" shape="706.53,631.94 706.75,628.94 706.90,626.83 707.04,624.72 707.25,621.72"/>
    </edge>
    <edge id=":1560223943_14" function="internal">
        <lane id=":1560223943_14_0" index="0" speed="22.22" length="5.41" shape="706.53,631.94 707.17,629.00 708.60,627.07"/>
    </edge>
    <edge id=":1560223943_15" function="internal">
        <lane id=":1560223943_15_0" index="0" speed="22.22" length="2.41" shape="706.53,631.94 707.44,630.76 708.29,630.41"/>
    </edge>
    <edge id=":1560223943_18" function="internal">
        <lane id=":1560223943_18_0" index="0" speed="22.22" length="5.41" shape="708.60,627.07 710.81,626.14 713.81,626.21"/>
    </edge>
    <edge id=":1560223943_19" function="internal">