<?xml version="1.0" encoding="UTF-8"?>

<!-- generated on Thu Dec  1 14:34:49 2016 by SUMO netconvert Version dev-SVN-r22164
<?xml version="1.0" encoding="UTF-8"?>

<configuration xmlns:xsi="http://www.w3.org/2001/XMLSchema-instance" xsi:noNamespaceSchemaLocation="http://sumo.dlr.de/xsd/netconvertConfiguration.xsd">

    <input>
        <osm-files value="osm.xml"/>
    </input>

    <output>
        <output-file value="/scr2/texttest_tmp/tools.01Dec143448.31194/tools/import/OSM/build_passenger/net.net.xml"/>
        <output.street-names value="true"/>
        <output.original-names value="true"/>
    </output>

    <projection>
        <proj.utm value="true"/>
    </projection>

    <tls_building>
        <tls.discard-simple value="true"/>
        <tls.join value="true"/>
        <tls.guess-signals value="true"/>
    </tls_building>

    <ramp_guessing>
        <ramps.guess value="true"/>
    </ramp_guessing>

    <edge_removal>
        <keep-edges.by-vclass value="passenger"/>
    </edge_removal>

    <processing>
        <geometry.remove value="true"/>
        <roundabouts.guess value="true"/>
        <junctions.join value="true"/>
        <junctions.corner-detail value="5"/>
    </processing>

    <report>
        <verbose value="true"/>
    </report>

</configuration>
-->

<net version="0.27" junctionCornerDetail="5" xmlns:xsi="http://www.w3.org/2001/XMLSchema-instance" xsi:noNamespaceSchemaLocation="http://sumo.dlr.de/xsd/net_file.xsd">

    <location netOffset="-398348.81,-5809189.04" convBoundary="0.00,0.00,2640.77,946.75" origBoundary="13.453860,52.423643,13.575739,52.459735" projParameter="+proj=utm +zone=33 +ellps=WGS84 +datum=WGS84 +units=m +no_defs"/>

    <type id="highway.bridleway" priority="1" numLanes="1" speed="2.78" allow="pedestrian" oneway="1" width="2.00"/>
    <type id="highway.bus_guideway" priority="1" numLanes="1" speed="8.33" allow="bus" oneway="1"/>
    <type id="highway.cycleway" priority="1" numLanes="1" speed="5.56" allow="bicycle" oneway="0" width="1.00"/>
    <type id="highway.footway" priority="1" numLanes="1" speed="2.78" allow="pedestrian" oneway="1" width="2.00"/>
    <type id="highway.ford" priority="1" numLanes="1" speed="2.78" allow="army" oneway="0"/>
    <type id="highway.living_street" priority="3" numLanes="1" speed="2.78" disallow="tram rail_urban rail rail_electric ship" oneway="0"/>
    <type id="highway.motorway" priority="13" numLanes="2" speed="44.44" allow="private emergency authority army vip passenger hov taxi bus coach delivery truck trailer motorcycle evehicle custom1 custom2" oneway="1"/>
    <type id="highway.motorway_link" priority="12" numLanes="1" speed="22.22" allow="private emergency authority army vip passenger hov taxi bus coach delivery truck trailer motorcycle evehicle custom1 custom2" oneway="1"/>
    <type id="highway.path" priority="1" numLanes="1" speed="2.78" allow="bicycle pedestrian" oneway="1" width="2.00"/>
    <type id="highway.pedestrian" priority="1" numLanes="1" speed="2.78" allow="pedestrian" oneway="1" width="2.00"/>
    <type id="highway.primary" priority="9" numLanes="2" speed="27.78" disallow="tram rail_urban rail rail_electric ship" oneway="0"/>
    <type id="highway.primary_link" priority="8" numLanes="1" speed="22.22" disallow="tram rail_urban rail rail_electric ship" oneway="0"/>
    <type id="highway.raceway" priority="14" numLanes="2" speed="83.33" allow="vip" oneway="0"/>
    <type id="highway.residential" priority="4" numLanes="1" speed="13.89" disallow="tram rail_urban rail rail_electric ship" oneway="0"/>
    <type id="highway.secondary" priority="7" numLanes="2" speed="27.78" disallow="tram rail_urban rail rail_electric ship" oneway="0"/>
    <type id="highway.secondary_link" priority="6" numLanes="1" speed="22.22" disallow="tram rail_urban rail rail_electric ship" oneway="0"/>
    <type id="highway.service" priority="2" numLanes="1" speed="5.56" allow="delivery bicycle pedestrian" oneway="0"/>
    <type id="highway.services" priority="1" numLanes="1" speed="8.33" disallow="tram rail_urban rail rail_electric ship" oneway="0"/>
    <type id="highway.stairs" priority="1" numLanes="1" speed="1.39" allow="pedestrian" oneway="1" width="2.00"/>
    <type id="highway.step" priority="1" numLanes="1" speed="1.39" allow="pedestrian" oneway="1" width="2.00"/>
    <type id="highway.steps" priority="1" numLanes="1" speed="1.39" allow="pedestrian" oneway="1" width="2.00"/>
    <type id="highway.tertiary" priority="6" numLanes="1" speed="22.22" disallow="tram rail_urban rail rail_electric ship" oneway="0"/>
    <type id="highway.tertiary_link" priority="5" numLanes="1" speed="22.22" disallow="tram rail_urban rail rail_electric ship" oneway="0"/>
    <type id="highway.track" priority="1" numLanes="1" speed="5.56" disallow="tram rail_urban rail rail_electric ship" oneway="0"/>
    <type id="highway.trunk" priority="11" numLanes="2" speed="27.78" disallow="tram rail_urban rail rail_electric bicycle pedestrian ship" oneway="0"/>
    <type id="highway.trunk_link" priority="10" numLanes="1" speed="22.22" disallow="tram rail_urban rail rail_electric bicycle pedestrian ship" oneway="0"/>
    <type id="highway.unclassified" priority="5" numLanes="1" speed="13.89" disallow="tram rail_urban rail rail_electric ship" oneway="0"/>
    <type id="highway.unsurfaced" priority="1" numLanes="1" speed="8.33" disallow="tram rail_urban rail rail_electric ship" oneway="0"/>
    <type id="railway.light_rail" priority="15" numLanes="1" speed="27.78" allow="rail_urban" oneway="1"/>
    <type id="railway.preserved" priority="15" numLanes="1" speed="27.78" allow="rail" oneway="1"/>
    <type id="railway.rail" priority="15" numLanes="1" speed="83.33" allow="rail rail_electric" oneway="1"/>
    <type id="railway.subway" priority="15" numLanes="1" speed="27.78" allow="rail_urban" oneway="1"/>
    <type id="railway.tram" priority="15" numLanes="1" speed="13.89" allow="tram" oneway="1"/>

    <edge id=":1560223241_0" function="internal">
        <lane id=":1560223241_0_0" index="0" disallow="tram rail_urban rail rail_electric ship" speed="13.89" length="4.82" shape="2640.79,179.99 2642.02,180.83 2642.42,181.66 2641.99,182.48 2640.75,183.29"/>
    </edge>
    <edge id=":1560223378_0" function="internal">
        <lane id=":1560223378_0_0" index="0" disallow="tram rail_urban rail rail_electric ship" speed="13.89" length="4.00" shape="1618.97,296.04 1616.21,299.61"/>
        <lane id=":1560223378_0_1" index="1" disallow="tram rail_urban rail rail_electric ship" speed="13.89" length="4.00" shape="1618.66,292.76 1615.94,296.32"/>
        <lane id=":1560223378_0_2" index="2" disallow="tram rail_urban rail rail_electric ship" speed="13.89" length="4.00" shape="1618.66,292.76 1615.67,293.03"/>
    </edge>
    <edge id=":1560223378_3" function="internal">
        <lane id=":1560223378_3_0" index="0" disallow="tram rail_urban rail rail_electric ship" speed="13.89" length="2.41" shape="1618.66,292.76 1617.34,292.06 1616.85,291.28"/>
    </edge>
    <edge id=":1560223378_7" function="internal">
        <lane id=":1560223378_7_0" index="0" speed="13.89" length="2.41" shape="1616.85,291.28 1617.18,290.42 1618.34,289.48"/>
    </edge>
    <edge id=":1560223378_4" function="internal">
        <lane id=":1560223378_4_0" index="0" disallow="tram rail_urban rail rail_electric ship" speed="13.89" length="2.93" shape="1615.12,286.45 1618.02,286.19"/>
        <lane id=":1560223378_4_1" index="1" disallow="tram rail_urban rail rail_electric ship" speed="13.89" length="2.93" shape="1615.39,289.74 1618.34,289.48"/>
    </edge>
    <edge id=":1560223378_6" function="internal">
        <lane id=":1560223378_6_0" index="0" disallow="tram rail_urban rail rail_electric ship" speed="13.89" length="2.41" shape="1615.39,289.74 1616.69,290.46 1617.17,291.25"/>
    </edge>
    <edge id=":1560223378_8" function="internal">
        <lane id=":1560223378_8_0" index="0" speed="13.89" length="2.41" shape="1617.17,291.25 1616.83,292.10 1615.67,293.03"/>
    </edge>
    <edge id=":1560223382_0" function="internal">
        <lane id=":1560223382_0_0" index="0" disallow="tram rail_urban rail rail_electric ship" speed="13.89" length="5.03" shape="1631.66,297.96 1631.36,296.61 1630.70,295.69 1629.69,295.20 1628.31,295.14"/>
    </edge>
    <edge id=":1560223382_1" function="internal">
        <lane id=":1560223382_1_0" index="0" disallow="tram rail_urban rail rail_electric ship" speed="13.89" length="12.91" shape="1631.66,297.96 1631.71,293.69 1632.58,290.53 1634.28,288.47 1636.80,287.52"/>
    </edge>
    <edge id=":1560223382_2" function="internal">
        <lane id=":1560223382_2_0" index="0" disallow="tram rail_urban rail rail_electric ship" speed="13.89" length="4.82" shape="1631.66,297.96 1632.39,296.67 1633.18,296.20 1634.04,296.55 1634.95,297.72"/>
    </edge>
    <edge id=":1560223382_3" function="internal">
        <lane id=":1560223382_3_0" index="0" disallow="tram rail_urban rail rail_electric ship" speed="13.89" length="5.14" shape="1637.69,294.06 1636.40,294.44 1635.51,295.18 1635.03,296.27 1634.95,297.72"/>
    </edge>
    <edge id=":1560223382_4" function="internal">
        <lane id=":1560223382_4_0" index="0" disallow="tram rail_urban rail rail_electric ship" speed="13.89" length="9.38" shape="1637.69,294.06 1628.31,295.14"/>
        <lane id=":1560223382_4_1" index="1" disallow="tram rail_urban rail rail_electric ship" speed="13.89" length="9.38" shape="1637.24,290.79 1627.99,291.85"/>
    </edge>
    <edge id=":1560223382_6" function="internal">
        <lane id=":1560223382_6_0" index="0" disallow="tram rail_urban rail rail_electric ship" speed="13.89" length="2.41" shape="1637.24,290.79 1635.91,290.14 1635.39,289.38"/>
    </edge>
    <edge id=":1560223382_11" function="internal">
        <lane id=":1560223382_11_0" index="0" speed="13.89" length="2.41" shape="1635.39,289.38 1635.68,288.50 1636.80,287.52"/>
    </edge>
    <edge id=":1560223382_7" function="internal">
        <lane id=":1560223382_7_0" index="0" disallow="tram rail_urban rail rail_electric ship" speed="13.89" length="9.13" shape="1627.35,285.29 1636.36,284.25"/>
        <lane id=":1560223382_7_1" index="1" disallow="tram rail_urban rail rail_electric ship" speed="13.89" length="9.13" shape="1627.67,288.57 1636.80,287.52"/>
    </edge>
    <edge id=":1560223382_9" function="internal">
        <lane id=":1560223382_9_0" index="0" disallow="tram rail_urban rail rail_electric ship" speed="13.89" length="4.44" shape="1627.67,288.57 1630.58,288.90 1631.79,289.81"/>
    </edge>
    <edge id=":1560223382_10" function="internal">
        <lane id=":1560223382_10_0" index="0" disallow="tram rail_urban rail rail_electric ship" speed="13.89" length="2.41" shape="1627.67,288.57 1628.98,289.27 1629.47,290.05"/>
    </edge>
    <edge id=":1560223382_12" function="internal">
        <lane id=":1560223382_12_0" index="0" speed="13.89" length="8.80" shape="1631.79,289.81 1632.76,290.54 1634.22,293.48 1634.95,297.72"/>
    </edge>
    <edge id=":1560223382_13" function="internal">
        <lane id=":1560223382_13_0" index="0" speed="13.89" length="2.41" shape="1629.47,290.05 1629.14,290.91 1627.99,291.85"/>
    </edge>
    <edge id=":1560223404_0" function="internal">
        <lane id=":1560223404_0_0" index="0" disallow="tram rail_urban rail rail_electric ship" speed="13.89" length="7.16" shape="1465.44,314.75 1465.16,312.29 1464.50,310.57 1463.47,309.60 1462.07,309.38"/>
    </edge>
    <edge id=":1560223404_1" function="internal">
        <lane id=":1560223404_1_0" index="0" disallow="tram rail_urban rail rail_electric ship" speed="13.89" length="22.59" shape="1468.74,314.65 1468.97,307.09 1469.79,301.06 1470.59,296.22 1470.76,292.19"/>
    </edge>
    <edge id=":1560223404_2" function="internal">
        <lane id=":1560223404_2_0" index="0" disallow="tram rail_urban rail rail_electric ship" speed="13.89" length="9.40" shape="1472.03,314.55 1472.25,308.94 1473.21,305.28"/>
    </edge>
    <edge id=":1560223404_3" function="internal">
        <lane id=":1560223404_3_0" index="0" disallow="tram rail_urban rail rail_electric ship" speed="13.89" length="2.41" shape="1472.03,314.55 1472.82,313.28 1473.63,312.84"/>
    </edge>
    <edge id=":1560223404_18" function="internal">
        <lane id=":1560223404_18_0" index="0" speed="13.89" length="6.56" shape="1473.21,305.28 1473.32,304.86 1475.22,302.29 1477.96,301.25"/>
    </edge>
    <edge id=":1560223404_19" function="internal">
        <lane id=":1560223404_19_0" index="0" speed="13.89" length="2.41" shape="1473.63,312.84 1474.47,313.23 1475.33,314.44"/>
    </edge>
    <edge id=":1560223404_4" function="internal">
        <lane id=":1560223404_4_0" index="0" disallow="tram rail_urban rail rail_electric ship" speed="13.89" length="5.45" shape="1478.85,311.11 1477.28,311.44 1476.17,312.10 1475.52,313.11 1475.33,314.44"/>
    </edge>
    <edge id=":1560223404_5" function="internal">
        <lane id=":1560223404_5_0" index="0" disallow="tram rail_urban rail rail_electric ship" speed="13.89" length="16.99" shape="1478.85,311.11 1473.87,311.04 1470.46,310.23 1467.05,309.42 1462.07,309.38"/>
        <lane id=":1560223404_5_1" index="1" disallow="tram rail_urban rail rail_electric ship" speed="13.89" length="16.99" shape="1478.56,307.82 1473.56,307.76 1470.15,306.94 1466.74,306.13 1461.75,306.10"/>
    </edge>
    <edge id=":1560223404_7" function="internal">
        <lane id=":1560223404_7_0" index="0" disallow="tram rail_urban rail rail_electric ship" speed="13.89" length="4.52" shape="1478.26,304.53 1475.44,303.98 1474.29,302.80"/>
    </edge>
    <edge id=":1560223404_8" function="internal">
        <lane id=":1560223404_8_0" index="0" disallow="tram rail_urban rail rail_electric ship" speed="13.89" length="2.63" shape="1478.26,304.53 1476.95,303.82 1476.47,303.04 1476.55,302.83"/>
    </edge>
    <edge id=":1560223404_20" function="internal">
        <lane id=":1560223404_20_0" index="0" speed="13.89" length="11.41" shape="1474.29,302.80 1473.24,301.73 1471.69,297.80 1470.76,292.19"/>
    </edge>
    <edge id=":1560223404_21" function="internal">
        <lane id=":1560223404_21_0" index="0" speed="13.89" length="2.19" shape="1476.55,302.83 1476.81,302.18 1477.96,301.25"/>
    </edge>
    <edge id=":1560223404_9" function="internal">
        <lane id=":1560223404_9_0" index="0" disallow="tram rail_urban rail rail_electric ship" speed="13.89" length="7.76" shape="1474.05,291.92 1474.50,294.67 1475.25,296.59 1476.31,297.69 1477.67,297.96"/>
    </edge>
    <edge id=":1560223404_10" function="internal">
        <lane id=":1560223404_10_0" index="0" disallow="tram rail_urban rail rail_electric ship" speed="13.89" length="22.56" shape="1474.05,291.92 1475.33,314.44"/>
    </edge>
    <edge id=":1560223404_11" function="internal">
        <lane id=":1560223404_11_0" index="0" disallow="tram rail_urban rail rail_electric ship" speed="13.89" length="10.90" shape="1474.05,291.92 1473.73,297.63 1471.58,301.90 1471.26,302.13"/>
    </edge>
    <edge id=":1560223404_12" function="internal">
        <lane id=":1560223404_12_0" index="0" disallow="tram rail_urban rail rail_electric ship" speed="13.89" length="2.67" shape="1474.05,291.92 1473.33,293.22 1472.54,293.70 1472.30,293.60"/>
    </edge>
    <edge id=":1560223404_22" function="internal">
        <lane id=":1560223404_22_0" index="0" speed="13.89" length="10.49" shape="1471.26,302.13 1467.59,304.72 1461.75,306.10"/>
    </edge>
    <edge id=":1560223404_23" function="internal">
        <lane id=":1560223404_23_0" index="0" speed="13.89" length="2.15" shape="1472.30,293.60 1471.68,293.36 1470.76,292.19"/>
    </edge>
    <edge id=":1560223404_13" function="internal">
        <lane id=":1560223404_13_0" index="0" disallow="tram rail_urban rail rail_electric ship" speed="13.89" length="11.43" shape="1460.80,296.24 1465.27,295.62 1468.41,294.74 1470.24,293.59 1470.76,292.19"/>
    </edge>
    <edge id=":1560223404_14" function="internal">
        <lane id=":1560223404_14_0" index="0" disallow="tram rail_urban rail rail_electric ship" speed="13.89" length="17.05" shape="1460.80,296.24 1465.81,296.27 1469.23,297.08 1472.66,297.90 1477.67,297.96"/>
        <lane id=":1560223404_14_1" index="1" disallow="tram rail_urban rail rail_electric ship" speed="13.89" length="17.05" shape="1461.12,299.53 1466.12,299.56 1469.54,300.37 1472.96,301.19 1477.96,301.25"/>
    </edge>
    <edge id=":1560223404_16" function="internal">
        <lane id=":1560223404_16_0" index="0" disallow="tram rail_urban rail rail_electric ship" speed="13.89" length="11.53" shape="1461.43,302.81 1467.36,303.05 1471.65,305.07 1472.15,305.77"/>
    </edge>
    <edge id=":1560223404_17" function="internal">
        <lane id=":1560223404_17_0" index="0" disallow="tram rail_urban rail rail_electric ship" speed="13.89" length="2.64" shape="1461.43,302.81 1462.74,303.51 1463.23,304.30 1463.15,304.51"/>
    </edge>
    <edge id=":1560223404_24" function="internal">
        <lane id=":1560223404_24_0" index="0" speed="13.89" length="9.44" shape="1472.15,305.77 1474.31,308.87 1475.33,314.44"/>
    </edge>
    <edge id=":1560223404_25" function="internal">
        <lane id=":1560223404_25_0" index="0" speed="13.89" length="2.18" shape="1463.15,304.51 1462.90,305.16 1461.75,306.10"/>
    </edge>
    <edge id=":1560223468_0" function="internal">
        <lane id=":1560223468_0_0" index="0" disallow="tram rail_urban rail rail_electric ship" speed="13.89" length="2.58" shape="1400.19,313.80 1397.71,314.04"/>
        <lane id=":1560223468_0_1" index="1" disallow="tram rail_urban rail rail_electric ship" speed="13.89" length="2.58" shape="1399.97,310.51 1397.30,310.76"/>
    </edge>
    <edge id=":1560223468_2" function="internal">
        <lane id=":1560223468_2_0" index="0" disallow="tram rail_urban rail rail_electric ship" speed="13.89" length="2.41" shape="1399.97,310.51 1398.68,309.77 1398.21,308.97"/>
    </edge>
    <edge id=":1560223468_7" function="internal">
        <lane id=":1560223468_7_0" index="0" speed="13.89" length="2.41" shape="1398.21,308.97 1398.57,308.12 1399.75,307.22"/>
    </edge>
    <edge id=":1560223468_3" function="internal">
        <lane id=":1560223468_3_0" index="0" disallow="tram rail_urban rail rail_electric ship" speed="13.89" length="3.96" shape="1396.48,304.21 1399.31,300.63"/>
        <lane id=":1560223468_3_1" index="1" disallow="tram rail_urban rail rail_electric ship" speed="13.89" length="3.96" shape="1396.89,307.49 1399.53,303.92"/>
        <lane id=":1560223468_3_2" index="2" disallow="tram rail_urban rail rail_electric ship" speed="13.89" length="3.96" shape="1396.89,307.49 1399.75,307.22"/>
    </edge>
    <edge id=":1560223468_6" function="internal">
        <lane id=":1560223468_6_0" index="0" disallow="tram rail_urban rail rail_electric ship" speed="13.89" length="2.52" shape="1396.89,307.49 1398.22,308.15 1398.73,308.92 1398.69,309.02"/>
    </edge>
    <edge id=":1560223468_8" function="internal">
        <lane id=":1560223468_8_0" index="0" speed="13.89" length="2.30" shape="1398.69,309.02 1398.42,309.79 1397.30,310.76"/>
    </edge>
    <edge id=":1560223484_0" function="internal">
        <lane id=":1560223484_0_0" index="0" disallow="tram rail_urban rail rail_electric ship" speed="13.89" length="5.81" shape="1203.87,334.25 1202.62,334.62 1201.67,335.46 1201.05,336.76 1200.73,338.53"/>
    </edge>
    <edge id=":1560223484_1" function="internal">
        <lane id=":1560223484_1_0" index="0" disallow="tram rail_urban rail rail_electric ship" speed="13.89" length="9.61" shape="1203.87,334.25 1194.31,335.21"/>
        <lane id=":1560223484_1_1" index="1" disallow="tram rail_urban rail rail_electric ship" speed="13.89" length="9.61" shape="1203.55,330.97 1193.98,331.92"/>
    </edge>
    <edge id=":1560223484_3" function="internal">
        <lane id=":1560223484_3_0" index="0" disallow="tram rail_urban rail rail_electric ship" speed="13.89" length="2.41" shape="1203.55,330.97 1202.24,330.27 1201.75,329.49"/>
    </edge>
    <edge id=":1560223484_11" function="internal">
        <lane id=":1560223484_11_0" index="0" speed="13.89" length="2.41" shape="1201.75,329.49 1202.08,328.63 1203.23,327.68"/>
    </edge>
    <edge id=":1560223484_4" function="internal">
        <lane id=":1560223484_4_0" index="0" disallow="tram rail_urban rail rail_electric ship" speed="13.89" length="9.63" shape="1193.32,325.36 1202.90,324.40"/>
        <lane id=":1560223484_4_1" index="1" disallow="tram rail_urban rail rail_electric ship" speed="13.89" length="9.63" shape="1193.65,328.64 1203.23,327.68"/>
    </edge>
    <edge id=":1560223484_6" function="internal">
        <lane id=":1560223484_6_0" index="0" disallow="tram rail_urban rail rail_electric ship" speed="13.89" length="4.97" shape="1193.65,328.64 1197.06,328.96 1198.29,329.89"/>
    </edge>
    <edge id=":1560223484_7" function="internal">
        <lane id=":1560223484_7_0" index="0" disallow="tram rail_urban rail rail_electric ship" speed="13.89" length="2.41" shape="1193.65,328.64 1194.96,329.34 1195.46,330.12"/>
    </edge>
    <edge id=":1560223484_12" function="internal">
        <lane id=":1560223484_12_0" index="0" speed="13.89" length="9.42" shape="1198.29,329.89 1199.38,330.71 1200.60,333.90 1200.73,338.53"/>
    </edge>
    <edge id=":1560223484_13" function="internal">
        <lane id=":1560223484_13_0" index="0" speed="13.89" length="2.41" shape="1195.46,330.12 1195.13,330.98 1193.98,331.92"/>
    </edge>
    <edge id=":1560223484_8" function="internal">
        <lane id=":1560223484_8_0" index="0" disallow="tram rail_urban rail rail_electric ship" speed="13.89" length="5.23" shape="1197.44,338.27 1197.35,336.80 1196.79,335.80 1195.78,335.27 1194.31,335.21"/>
    </edge>
    <edge id=":1560223484_9" function="internal">
        <lane id=":1560223484_9_0" index="0" disallow="tram rail_urban rail rail_electric ship" speed="13.89" length="13.01" shape="1197.44,338.27 1198.10,333.82 1199.29,330.57 1200.99,328.53 1203.23,327.68"/>
    </edge>
    <edge id=":1560223484_10" function="internal">
        <lane id=":1560223484_10_0" index="0" disallow="tram rail_urban rail rail_electric ship" speed="13.89" length="4.82" shape="1197.44,338.27 1198.36,337.10 1199.22,336.75 1200.01,337.23 1200.73,338.53"/>
    </edge>
    <edge id=":1560223591_0" function="internal">
        <lane id=":1560223591_0_0" index="0" disallow="tram rail_urban rail rail_electric ship" speed="13.89" length="5.00" shape="1195.75,449.63 1194.38,449.71 1193.37,450.21 1192.71,451.13 1192.41,452.46"/>
    </edge>
    <edge id=":1560223591_1" function="internal">
        <lane id=":1560223591_1_0" index="0" disallow="tram rail_urban rail rail_electric ship" speed="13.89" length="10.25" shape="1195.75,449.63 1193.00,449.01 1191.08,447.67 1190.00,445.62 1189.75,442.86"/>
    </edge>
    <edge id=":1560223591_2" function="internal">
        <lane id=":1560223591_2_0" index="0" disallow="tram rail_urban rail rail_electric ship" speed="13.89" length="4.82" shape="1195.75,449.63 1194.59,448.70 1194.25,447.85 1194.72,447.06 1196.03,446.34"/>
    </edge>
    <edge id=":1560223591_3" function="internal">
        <lane id=":1560223591_3_0" index="0" disallow="tram rail_urban rail rail_electric ship" speed="13.89" length="5.05" shape="1193.04,443.03 1193.17,444.38 1193.71,445.38 1194.66,446.03 1196.03,446.34"/>
    </edge>
    <edge id=":1560223591_4" function="internal">
        <lane id=":1560223591_4_0" index="0" disallow="tram rail_urban rail rail_electric ship" speed="13.89" length="9.45" shape="1193.04,443.03 1192.41,452.46"/>
    </edge>
    <edge id=":1560223591_5" function="internal">
        <lane id=":1560223591_5_0" index="0" disallow="tram rail_urban rail rail_electric ship" speed="13.89" length="4.82" shape="1193.04,443.03 1192.15,444.22 1191.31,444.59 1190.50,444.14 1189.75,442.86"/>
    </edge>
    <edge id=":1560223591_6" function="internal">
        <lane id=":1560223591_6_0" index="0" disallow="tram rail_urban rail rail_electric ship" speed="13.89" length="9.35" shape="1189.12,452.19 1189.75,442.86"/>
    </edge>
    <edge id=":1560223591_7" function="internal">
        <lane id=":1560223591_7_0" index="0" disallow="tram rail_urban rail rail_electric ship" speed="13.89" length="10.33" shape="1189.12,452.19 1189.75,449.43 1191.11,447.54 1193.20,446.51 1196.03,446.34"/>
    </edge>
    <edge id=":1560223591_8" function="internal">
        <lane id=":1560223591_8_0" index="0" disallow="tram rail_urban rail rail_electric ship" speed="13.89" length="4.82" shape="1189.12,452.19 1190.04,451.03 1190.90,450.68 1191.69,451.16 1192.41,452.46"/>
    </edge>
    <edge id=":1560223615_0" function="internal">
        <lane id=":1560223615_0_0" index="0" disallow="tram rail_urban rail rail_electric ship" speed="13.89" length="5.01" shape="1309.27,459.04 1307.89,459.14 1306.88,459.65 1306.24,460.58 1305.96,461.92"/>
    </edge>
    <edge id=":1560223615_1" function="internal">
        <lane id=":1560223615_1_0" index="0" disallow="tram rail_urban rail rail_electric ship" speed="13.89" length="9.49" shape="1309.27,459.04 1299.81,458.30"/>
    </edge>
    <edge id=":1560223615_2" function="internal">
        <lane id=":1560223615_2_0" index="0" disallow="tram rail_urban rail rail_electric ship" speed="13.89" length="2.41" shape="1309.27,459.04 1308.09,458.13 1307.74,457.28"/>
    </edge>
    <edge id=":1560223615_9" function="internal">
        <lane id=":1560223615_9_0" index="0" speed="13.89" length="2.41" shape="1307.74,457.28 1308.21,456.48 1309.51,455.75"/>
    </edge>
    <edge id=":1560223615_3" function="internal">
        <lane id=":1560223615_3_0" index="0" disallow="tram rail_urban rail rail_electric ship" speed="13.89" length="9.46" shape="1300.08,455.01 1309.51,455.75"/>
    </edge>
    <edge id=":1560223615_4" function="internal">
        <lane id=":1560223615_4_0" index="0" disallow="tram rail_urban rail rail_electric ship" speed="13.89" length="5.12" shape="1300.08,455.01 1302.81,455.64 1304.70,457.00"/>
    </edge>
    <edge id=":1560223615_5" function="internal">
        <lane id=":1560223615_5_0" index="0" disallow="tram rail_urban rail rail_electric ship" speed="13.89" length="2.41" shape="1300.08,455.01 1301.25,455.93 1301.59,456.79"/>
    </edge>
    <edge id=":1560223615_10" function="internal">
        <lane id=":1560223615_10_0" index="0" speed="13.89" length="5.18" shape="1304.70,457.00 1305.75,459.09 1305.96,461.92"/>
    </edge>
    <edge id=":1560223615_11" function="internal">
        <lane id=":1560223615_11_0" index="0" speed="13.89" length="2.41" shape="1301.59,456.79 1301.11,457.58 1299.81,458.30"/>
    </edge>
    <edge id=":1560223615_6" function="internal">
        <lane id=":1560223615_6_0" index="0" disallow="tram rail_urban rail rail_electric ship" speed="13.89" length="5.05" shape="1302.66,461.71 1302.56,460.31 1302.05,459.28 1301.13,458.61 1299.81,458.30"/>
    </edge>
    <edge id=":1560223615_7" function="internal">
        <lane id=":1560223615_7_0" index="0" disallow="tram rail_urban rail rail_electric ship" speed="13.89" length="10.37" shape="1302.66,461.71 1303.25,458.92 1304.58,457.00 1306.67,455.95 1309.51,455.75"/>
    </edge>
    <edge id=":1560223615_8" function="internal">
        <lane id=":1560223615_8_0" index="0" disallow="tram rail_urban rail rail_electric ship" speed="13.89" length="4.82" shape="1302.66,461.71 1303.57,460.53 1304.42,460.17 1305.21,460.63 1305.96,461.92"/>
    </edge>
    <edge id=":1560223635_0" function="internal">
        <lane id=":1560223635_0_0" index="0" disallow="tram rail_urban rail rail_electric ship" speed="13.89" length="5.73" shape="1485.49,474.65 1485.13,473.39 1484.31,472.45 1483.03,471.83 1481.30,471.54"/>
    </edge>
    <edge id=":1560223635_1" function="internal">
        <lane id=":1560223635_1_0" index="0" disallow="tram rail_urban rail rail_electric ship" speed="13.89" length="9.59" shape="1485.49,474.65 1484.57,465.10"/>
    </edge>
    <edge id=":1560223635_2" function="internal">
        <lane id=":1560223635_2_0" index="0" disallow="tram rail_urban rail rail_electric ship" speed="13.89" length="2.41" shape="1485.49,474.65 1486.19,473.34 1486.98,472.85"/>
    </edge>
    <edge id=":1560223635_9" function="internal">
        <lane id=":1560223635_9_0" index="0" speed="13.89" length="2.41" shape="1486.98,472.85 1487.84,473.18 1488.78,474.33"/>
    </edge>
    <edge id=":1560223635_3" function="internal">
        <lane id=":1560223635_3_0" index="0" disallow="tram rail_urban rail rail_electric ship" speed="13.89" length="9.59" shape="1487.86,464.79 1488.78,474.33"/>
    </edge>
    <edge id=":1560223635_4" function="internal">
        <lane id=":1560223635_4_0" index="0" disallow="tram rail_urban rail rail_electric ship" speed="13.89" length="5.42" shape="1487.86,464.79 1487.71,467.93 1486.65,469.94"/>
    </edge>
    <edge id=":1560223635_5" function="internal">
        <lane id=":1560223635_5_0" index="0" disallow="tram rail_urban rail rail_electric ship" speed="13.89" length="2.41" shape="1487.86,464.79 1487.15,466.10 1486.37,466.59"/>
    </edge>
    <edge id=":1560223635_10" function="internal">
        <lane id=":1560223635_10_0" index="0" speed="13.89" length="5.77" shape="1486.65,469.94 1486.57,470.10 1484.43,471.30 1481.30,471.54"/>
    </edge>
    <edge id=":1560223635_11" function="internal">
        <lane id=":1560223635_11_0" index="0" speed="13.89" length="2.41" shape="1486.37,466.59 1485.51,466.26 1484.57,465.10"/>
    </edge>
    <edge id=":1560223635_6" function="internal">
        <lane id=":1560223635_6_0" index="0" disallow="tram rail_urban rail rail_electric ship" speed="13.89" length="5.21" shape="1481.52,468.25 1482.98,468.14 1483.97,467.57 1484.50,466.56 1484.57,465.10"/>
    </edge>
    <edge id=":1560223635_7" function="internal">