<?xml version="1.0" encoding="UTF-8"?>

<!-- generated on 11.06.2018 15:08:29 by Eclipse SUMO GUI Version 8ea350efa2
<configuration xmlns:xsi="http://www.w3.org/2001/XMLSchema-instance" xsi:noNamespaceSchemaLocation="http://sumo.dlr.de/xsd/sumoConfiguration.xsd">

    <input>
        <net-file value="C:\Projects\sumo\tests\netedit\additionalElements\lanecalibrator\load_values_flows\net.netedit"/>
        <additional-files value="C:\Projects\sumo\tests\netedit\additionalElements\lanecalibrator\load_values_flows\additionals.netedit"/>
    </input>

</configuration>
-->

<calibratorstats xmlns:xsi="http://www.w3.org/2001/XMLSchema-instance" xsi:noNamespaceSchemaLocation="http://sumo.dlr.de/xsd/calibratorstats_file.xsd">
    <interval begin="0.00" end="100.00" id="calibratorFlows" nVehContrib="0" removed="0" inserted="0" cleared="0" flow="0.00" aspiredFlow="10.00" speed="-nan(ind)" aspiredSpeed="10.00"/>
</calibratorstats>
