<additional xmlns:xsi="http://www.w3.org/2001/XMLSchema-instance" xsi:noNamespaceSchemaLocation="http://sumo.dlr.de/xsd/additional_file.xsd">

    <!-- default route -->
    <route id="CRoute" edges="center0 center1"/>

    <!-- Calibrator -->
    <calibrator id="calibratorFlows" edge="center0" pos="20.00" period="100.00" output="calibratorFlows.txt">

        <!-- default -->
        <flow route="CRoute" begin="000" end="100" speed="10" vehsPerHour="250.00" id="CFlow01"/>

    </calibrator>

</additional>
