<?xml version="1.0" encoding="UTF-8"?>

<!-- generated on 2021-12-03 14:54:40 by Eclipse SUMO netedit Version v1_11_0+0299-3da089e
<configuration xmlns:xsi="http://www.w3.org/2001/XMLSchema-instance" xsi:noNamespaceSchemaLocation="http://sumo.dlr.de/xsd/netconvertConfiguration.xsd">

    <input>
        <sumo-net-file value="net.net.xml"/>
    </input>

    <output>
        <output-file value="net.net.xml"/>
    </output>

    <processing>
        <geometry.min-radius.fix.railways value="false"/>
        <geometry.max-grade.fix value="false"/>
        <offset.disable-normalization value="true"/>
        <lefthand value="false"/>
    </processing>

    <junctions>
        <no-turnarounds value="true"/>
        <junctions.corner-detail value="0"/>
        <junctions.limit-turn-speed value="-1"/>
        <rectangular-lane-cut value="false"/>
    </junctions>

    <pedestrian>
        <walkingareas value="false"/>
    </pedestrian>

    <report>
        <aggregate-warnings value="5"/>
    </report>

</configuration>
-->

<net version="1.9" xmlns:xsi="http://www.w3.org/2001/XMLSchema-instance" xsi:noNamespaceSchemaLocation="http://sumo.dlr.de/xsd/net_file.xsd">

    <location netOffset="0.00,0.00" convBoundary="-100.00,100.00,300.00,200.00" origBoundary="0.00,0.00,400.00,400.00" projParameter="!"/>

    <edge id=":gneJ0_0" function="internal">
        <lane id=":gneJ0_0_0" index="0" speed="13.89" length="0.10" shape="200.00,198.40 200.00,198.40"/>
    </edge>
    <edge id=":gneJ3_0" function="internal">
        <lane id=":gneJ3_0_0" index="0" speed="13.89" length="0.10" shape="0.00,198.40 0.00,198.40"/>
    </edge>
    <edge id=":gneJ4_0" function="internal">
        <lane id=":gneJ4_0_0" index="0" speed="13.89" length="0.10" shape="100.00,198.40 100.00,198.40"/>
    </edge>

    <edge id="a" from="gneJ2" to="gneJ3" priority="-1">
        <lane id="a_0" index="0" speed="13.89" length="100.00" shape="-100.00,198.40 0.00,198.40"/>
    </edge>
    <edge id="b" from="gneJ3" to="gneJ4" priority="-1">
        <lane id="b_0" index="0" speed="13.89" length="100.00" shape="0.00,198.40 100.00,198.40"/>
    </edge>
    <edge id="c" from="gneJ4" to="gneJ0" priority="-1">
        <lane id="c_0" index="0" speed="13.89" length="100.00" shape="100.00,198.40 200.00,198.40"/>
    </edge>
    <edge id="d" from="gneJ0" to="gneJ1" priority="-1">
        <lane id="d_0" index="0" speed="13.89" length="100.00" shape="200.00,198.40 300.00,198.40"/>
    </edge>
    <edge id="e" from="gneJ5" to="gneJ6" priority="-1">
        <lane id="e_0" index="0" allow="ship" speed="13.89" length="400.00" width="10.00" shape="-100.00,95.00 300.00,95.00"/>
    </edge>

    <junction id="gneJ0" type="priority" x="200.00" y="200.00" incLanes="c_0" intLanes=":gneJ0_0_0" shape="200.00,200.00 200.00,196.80 200.00,200.00">
        <request index="0" response="0" foes="0" cont="0"/>
    </junction>
    <junction id="gneJ1" type="dead_end" x="300.00" y="200.00" incLanes="d_0" intLanes="" shape="300.00,196.80 300.00,200.00"/>
    <junction id="gneJ2" type="dead_end" x="-100.00" y="200.00" incLanes="" intLanes="" shape="-100.00,200.00 -100.00,196.80"/>
    <junction id="gneJ3" type="priority" x="0.00" y="200.00" incLanes="a_0" intLanes=":gneJ3_0_0" shape="0.00,200.00 0.00,196.80 0.00,200.00">
        <request index="0" response="0" foes="0" cont="0"/>
    </junction>
    <junction id="gneJ4" type="priority" x="100.00" y="200.00" incLanes="b_0" intLanes=":gneJ4_0_0" shape="100.00,200.00 100.00,196.80 100.00,200.00">
        <request index="0" response="0" foes="0" cont="0"/>
    </junction>
    <junction id="gneJ5" type="dead_end" x="-100.00" y="100.00" incLanes="" intLanes="" shape="-100.00,100.00 -100.00,90.00"/>
    <junction id="gneJ6" type="dead_end" x="300.00" y="100.00" incLanes="e_0" intLanes="" shape="300.00,90.00 300.00,100.00"/>

    <connection from="a" to="b" fromLane="0" toLane="0" via=":gneJ3_0_0" dir="s" state="M"/>
    <connection from="b" to="c" fromLane="0" toLane="0" via=":gneJ4_0_0" dir="s" state="M"/>
    <connection from="c" to="d" fromLane="0" toLane="0" via=":gneJ0_0_0" dir="s" state="M"/>

    <connection from=":gneJ0_0" to="d" fromLane="0" toLane="0" dir="s" state="M"/>
    <connection from=":gneJ3_0" to="b" fromLane="0" toLane="0" dir="s" state="M"/>
    <connection from=":gneJ4_0" to="c" fromLane="0" toLane="0" dir="s" state="M"/>

</net>
