<?xml version="1.0" encoding="UTF-8"?>

<!-- generated on 2022-06-02 10:51:56 by Eclipse SUMO netedit Version v1_13_0+0554-8973ff76971
-->

<routes xmlns:xsi="http://www.w3.org/2001/XMLSchema-instance" xsi:noNamespaceSchemaLocation="http://sumo.dlr.de/xsd/routes_file.xsd">
    <!-- Vehicles, persons and containers (sorted by depart) -->
    <personFlow id="pf_0" begin="triggered" departPos="0.00" color="red" end="3600.00" personsPerHour="1200.00">
        <param key="KeyA1" value="valueA1"/>
        <param key="KeyA2" value="valueA3"/>
        <param key="KeyA3" value="valueA2"/>
        <ride from="gneE2" to="gneE5" lines="ANY"/>
    </personFlow>
    <personFlow id="pf_1" begin="triggered" departPos="11.00" color="blue" end="3800.00" personsPerHour="11501.60">
        <param key="KeyB1" value="valueB1"/>
        <param key="KeyB2" value="valueB3"/>
        <param key="KeyB3" value="valueB2"/>
        <ride from="gneE4" to="gneE5" lines="ANY"/>
    </personFlow>
</routes>
