<nodes xmlns:xsi="http://www.w3.org/2001/XMLSchema-instance" xsi:noNamespaceSchemaLocation="http://sumo.dlr.de/xsd/nodes_file.xsd">
    <node id="91" x="-500.0" y="0.0" />
    <node id="1" x="+0.0" y="0.0" />
    <node id="2" x="+1000.0" y="0.0" type="traffic_light"/>
    <node id="3" x="+1300.0" y="0.0" />
</nodes>
