<?xml version="1.0" encoding="UTF-8"?>

<!-- generated on Mon 28 Oct 2013 11:56:19 AM CET by Netedit Version dev-SVN-r14938
<?xml version="1.0" encoding="UTF-8"?>

<configuration xmlns:xsi="http://www.w3.org/2001/XMLSchema-instance" xsi:noNamespaceSchemaLocation="http://sumo.dlr.de/xsd/netedit.exeConfiguration.xsd">

    <output>
        <output-file value="/scr1/erdm_ja/debug/1054/net.net.xml"/>
    </output>

    <processing>
        <no-internal-links value="true"/>
        <no-turnarounds value="true"/>
        <offset.disable-normalization value="true"/>
    </processing>

</configuration>
-->

<net version="0.13" xmlns:xsi="http://www.w3.org/2001/XMLSchema-instance" xsi:noNamespaceSchemaLocation="http://sumo.dlr.de/xsd/net_file.xsd">

    <location netOffset="0.00,0.00" convBoundary="-100.00,-100.00,100.00,0.00" origBoundary="10000000000.00,10000000000.00,-10000000000.00,-10000000000.00" projParameter="!"/>

    <edge id="beg_minor" from="gneJ6" to="gneJ2" priority="0">
        <lane id="beg_minor_0" index="0" speed="13.89" length="100.00" shape="6.65,-100.00 6.65,-4.75"/>
    </edge>
    <edge id="beg_tls" from="gneJ0" to="gneJ1" priority="1">
        <lane id="beg_tls_0" index="0" speed="13.89" length="100.00" shape="-100.00,-1.65 0.00,-1.65"/>
    </edge>
    <edge id="end" from="gneJ2" to="gneJ5" priority="1">
        <lane id="end_0" index="0" speed="13.89" length="95.00" shape="9.75,-1.65 100.00,-1.65"/>
    </edge>
    <edge id="middle" from="gneJ1" to="gneJ2" priority="1">
        <lane id="middle_0" index="0" speed="13.89" length="5.00" shape="0.00,-1.65 3.55,-1.65"/>
    </edge>

    <tlLogic id="gneJ1" type="static" programID="0" offset="0">
        <phase duration="5" state="r"/>
        <phase duration="10" state="G"/>
    </tlLogic>

    <junction id="gneJ0" type="unregulated" x="-100.00" y="0.00" incLanes="" intLanes="" shape="-100.00,-0.05 -100.00,-3.25"/>
    <junction id="gneJ1" type="traffic_light" x="0.00" y="0.00" incLanes="beg_tls_0" intLanes="" shape="0.00,-0.05 0.00,-3.25 0.00,-0.05">
        <request index="0" response="0" foes="0"/>
    </junction>
    <junction id="gneJ2" type="priority" x="5.00" y="0.00" incLanes="beg_minor_0 middle_0" intLanes="" shape="9.75,-0.05 9.75,-3.25 8.25,-4.75 5.05,-4.75 3.55,-3.25 3.55,-0.05">
        <request index="0" response="10" foes="10"/>
        <request index="1" response="00" foes="01"/>
    </junction>
    <junction id="gneJ5" type="unregulated" x="100.00" y="0.00" incLanes="end_0" intLanes="" shape="100.00,-3.25 100.00,-0.05"/>
    <junction id="gneJ6" type="unregulated" x="5.00" y="-100.00" incLanes="" intLanes="" shape="5.05,-100.00 8.25,-100.00"/>

    <connection from="beg_minor" to="end" fromLane="0" toLane="0" dir="r" state="m"/>
    <connection from="beg_tls" to="middle" fromLane="0" toLane="0" tl="gneJ1" linkIndex="0" dir="s" state="o"/>
    <connection from="middle" to="end" fromLane="0" toLane="0" dir="s" state="M"/>

</net>
