<?xml version="1.0" encoding="UTF-8"?>

<!-- generated on 2022-09-16 11:14:37 by Eclipse SUMO netedit Version v1_14_1+1089-9da63a631b2
-->

<additional xmlns:xsi="http://www.w3.org/2001/XMLSchema-instance" xsi:noNamespaceSchemaLocation="http://sumo.dlr.de/xsd/additional_file.xsd">
    <!-- StoppingPlaces -->
    <parkingArea id="pa_0" lane="gneE0_0" startPos="15.00" endPos="25.00">
        <space x="15.00" y="15.00"/>
        <space x="15.00" y="15.00" slope="-4.00"/>
        <space x="20.00" y="15.00" slope="12.00"/>
    </parkingArea>
</additional>
