<?xml version="1.0" encoding="UTF-8"?>

<!-- generated on 2022-04-04 10:28:46 by Eclipse SUMO netedit Version v1_12_0+1909-c519ecb8a76
-->

<routes xmlns:xsi="http://www.w3.org/2001/XMLSchema-instance" xsi:noNamespaceSchemaLocation="http://sumo.dlr.de/xsd/routes_file.xsd">
    <!-- Vehicles, persons and containers (sorted by depart) -->
    <flow id="flow_0" begin="0.00" from="gneE0" to="gneE1" end="36.00" number="18">
        <stop chargingStation="chargingStation" speed="10.00"/>
    </flow>
    <flow id="flow_1" begin="0.00" from="gneE0" to="gneE1" end="36.00" number="18">
        <stop chargingStation="chargingStation" tripId=";;;;" speed="10.00"/>
    </flow>
    <flow id="flow_2" begin="0.00" from="gneE0" to="gneE1" end="36.00" number="18">
        <stop chargingStation="chargingStation" tripId="customTripID" speed="10.00"/>
    </flow>
</routes>
