<?xml version="1.0" encoding="UTF-8"?>

<!-- generated on 2022-10-14 11:50:12 by Eclipse SUMO netedit Version v1_14_1+1737-6dfaee3de68
-->

<routes xmlns:xsi="http://www.w3.org/2001/XMLSchema-instance" xsi:noNamespaceSchemaLocation="http://sumo.dlr.de/xsd/routes_file.xsd">
    <!-- Vehicles, persons and containers (sorted by depart) -->
    <container id="c_0" depart="0.00">
        <tranship from="gneE2" to="gneE2"/>
    </container>
    <container id="c_1" depart="0.00">
        <tranship from="gneE2" to="gneE2"/>
        <tranship containerStop="containerStopA" speed="12.30"/>
    </container>
</routes>
