<?xml version="1.0" encoding="UTF-8"?>

<!-- generated on Mon 28 Nov 2011 09:51:39 AM CET by Netedit Version dev-SVN-r11548
<?xml version="1.0" encoding="UTF-8"?>

<configuration xmlns:xsi="http://www.w3.org/2001/XMLSchema-instance" xsi:noNamespaceSchemaLocation="http://sumo-sim.org/xsd/netedit.exeConfiguration.xsd">

    <output>
        <output-file value="/home/erdm_ja/debug/netdiff_roundtrip_fail/edge_length.net.xml"/>
    </output>

    <processing>
        <no-turnarounds value="true"/>
        <offset.disable-normalization value="true"/>
    </processing>

</configuration>
-->

<net version="0.13" xmlns:xsi="http://www.w3.org/2001/XMLSchema-instance" xsi:noNamespaceSchemaLocation="http://sumo-sim.org/xsd/net_file.xsd">

    <location netOffset="0.00,0.00" convBoundary="10000000000.00,10000000000.00,-10000000000.00,-10000000000.00" origBoundary="10000000000.00,10000000000.00,-10000000000.00,-10000000000.00" projParameter="!"/>

    <edge id="gneE0" from="gneJ0" to="gneJ1" priority="1" length="123.00">
        <lane id="gneE0_0" index="0" speed="13.89" length="123.00" shape="0.00,-1.65 100.00,-1.65"/>
    </edge>

    <junction id="gneJ0" type="unregulated" x="0.00" y="0.00" incLanes="" intLanes="" shape="0.00,-0.05 0.00,-3.25">
    </junction>
    <junction id="gneJ1" type="unregulated" x="100.00" y="0.00" incLanes="gneE0_0" intLanes="" shape="100.00,-3.25 100.00,-0.05">
    </junction>

</net>
