<?xml version="1.0" encoding="UTF-8"?>

<!-- generated on 11.07.2018 10:38:09 by Eclipse SUMO netedit Version 88bb7b0b92
<configuration xmlns:xsi="http://www.w3.org/2001/XMLSchema-instance" xsi:noNamespaceSchemaLocation="https://sumo.dlr.de/xsd/netconvertConfiguration.xsd">

    <input>
        <sumo-additionals-file value="C:/Users/SUMO-Test/.texttest/tmp/netedit.gui.9_from_11Jul090516.1388/netedit.gui/netElements/edges/load\input_additionals.add.xml"/>
        <sumo-net-file value="C:/Users/SUMO-Test/.texttest/tmp/netedit.gui.9_from_11Jul090516.1388/netedit.gui/netElements/edges/load\input_net.net.xml"/>
    </input>

    <output>
        <additionals-output value="C:/Users/SUMO-Test/.texttest/tmp/netedit.gui.9_from_11Jul090516.1388/netedit.gui/netElements/edges/load\additionals.xml"/>
        <shapes-output value="C:/Users/SUMO-Test/.texttest/tmp/netedit.gui.9_from_11Jul090516.1388/netedit.gui/netElements/edges/load\shapes.xml"/>
        <output-file value="C:/Users/SUMO-Test/.texttest/tmp/netedit.gui.9_from_11Jul090516.1388/netedit.gui/netElements/edges/load\net.net.xml"/>
        <output.street-names value="true"/>
    </output>

    <processing>
        <no-turnarounds value="true"/>
        <offset.disable-normalization value="true"/>
        <lefthand value="false"/>
        <junctions.corner-detail value="5"/>
        <rectangular-lane-cut value="false"/>
        <walkingareas value="false"/>
    </processing>

    <visualisation>
        <gui-settings-file value="C:/Users/SUMO-Test/.texttest/tmp/netedit.gui.9_from_11Jul090516.1388/netedit.gui/netElements/edges/load\gui-settings.xml"/>
        <window-size value="700,500"/>
        <window-pos value="50,50"/>
        <gui-testing value="true"/>
        <gui-testing-debug value="true"/>
    </visualisation>

    <report>
        <no-warnings value="true"/>
        <error-log value="C:/Users/SUMO-Test/.texttest/tmp/netedit.gui.9_from_11Jul090516.1388/netedit.gui/netElements/edges/load\log.txt"/>
    </report>

</configuration>
-->

<additional xmlns:xsi="http://www.w3.org/2001/XMLSchema-instance" xsi:noNamespaceSchemaLocation="https://sumo.dlr.de/xsd/additional_file.xsd">
    <busStop id="busStop_-gneE5_0_0" lane="-gneE5_0" startPos="6.00" endPos="15.00"/>
    <e3Detector id="e3Detector_0" pos="40.00,40.00" freq="100.00" file="e3Detector_0.txt">
        <detEntry lane="-gneE11_0" pos="14.00"/>
        <detExit lane="gneE11_0" pos="13.00"/>
    </e3Detector>
    <rerouter id="rerouter_0" edges="-gneE9 gneE9" pos="69.38,43.40"/>
</additional>
