<?xml version="1.0" encoding="UTF-8"?>

<!-- generated on Wed May 23 12:19:56 2018 by Eclipse SUMO netgenerate Version 4bf903e
This data file and the accompanying materials
are made available under the terms of the Eclipse Public License v2.0
which accompanies this distribution, and is available at
http://www.eclipse.org/legal/epl-v20.html
SPDX-License-Identifier: EPL-2.0
<configuration xmlns:xsi="http://www.w3.org/2001/XMLSchema-instance" xsi:noNamespaceSchemaLocation="http://sumo.dlr.de/xsd/netgenerateConfiguration.xsd">

    <random_network>
        <rand value="true"/>
        <rand.iterations value="20"/>
        <rand.max-distance value="400"/>
        <rand.min-distance value="100"/>
        <rand.grid value="true"/>
    </random_network>

    <output>
        <write-license value="true"/>
        <output-file value="net.net.xml"/>
    </output>

    <processing>
        <turn-lanes value="2"/>
        <turn-lanes.length value="50"/>
    </processing>

    <building_defaults>
        <default.lanenumber value="2"/>
    </building_defaults>

    <report>
        <xml-validation value="never"/>
    </report>

</configuration>
-->

<net version="0.27" xmlns:xsi="http://www.w3.org/2001/XMLSchema-instance" xsi:noNamespaceSchemaLocation="http://sumo.dlr.de/xsd/net_file.xsd">

    <location netOffset="600.00,1000.00" convBoundary="0.00,0.00,806.40,1600.00" origBoundary="-600.00,-1000.00,200.00,600.00" projParameter="!"/>

    <edge id=":-101.250.00_0" function="internal">
        <lane id=":-101.250.00_0_0" index="0" speed="13.89" length="4.36" shape="288.80,651.50 288.80,648.50"/>
        <lane id=":-101.250.00_0_1" index="1" speed="13.89" length="4.36" shape="292.00,651.50 292.00,648.50"/>
        <lane id=":-101.250.00_0_2" index="2" speed="13.89" length="4.36" shape="292.00,651.50 295.20,648.50"/>
        <lane id=":-101.250.00_0_3" index="3" speed="13.89" length="4.36" shape="292.00,651.50 298.40,648.50"/>
    </edge>
    <edge id=":-109.350.00_0" function="internal">
        <lane id=":-109.350.00_0_0" index="0" speed="13.89" length="4.36" shape="311.20,1248.50 311.20,1251.50"/>
        <lane id=":-109.350.00_0_1" index="1" speed="13.89" length="4.36" shape="308.00,1248.50 308.00,1251.50"/>
        <lane id=":-109.350.00_0_2" index="2" speed="13.89" length="4.36" shape="308.00,1248.50 304.80,1251.50"/>
        <lane id=":-109.350.00_0_3" index="3" speed="13.89" length="4.36" shape="308.00,1248.50 301.60,1251.50"/>
    </edge>
    <edge id=":-11.50.00_0" function="internal">
        <lane id=":-11.50.00_0_0" index="0" speed="13.89" length="4.36" shape="548.50,988.80 551.50,988.80"/>
        <lane id=":-11.50.00_0_1" index="1" speed="13.89" length="4.36" shape="548.50,992.00 551.50,992.00"/>
        <lane id=":-11.50.00_0_2" index="2" speed="13.89" length="4.36" shape="548.50,992.00 551.50,995.20"/>
        <lane id=":-11.50.00_0_3" index="3" speed="13.89" length="4.36" shape="548.50,992.00 551.50,998.40"/>
    </edge>
    <edge id=":-113.310.56_0" function="internal">
        <lane id=":-113.310.56_0_0" index="0" speed="13.89" length="4.36" shape="349.06,880.75 346.57,882.42"/>
        <lane id=":-113.310.56_0_1" index="1" speed="13.89" length="4.36" shape="347.29,878.09 344.79,879.75"/>
        <lane id=":-113.310.56_0_2" index="2" speed="13.89" length="4.36" shape="347.29,878.09 343.02,877.09"/>
        <lane id=":-113.310.56_0_3" index="3" speed="13.89" length="4.36" shape="347.29,878.09 341.24,874.43"/>
    </edge>
    <edge id=":-15.250.00_0" function="internal">
        <lane id=":-15.250.00_0_0" index="0" speed="13.89" length="4.36" shape="588.80,1051.50 588.80,1048.50"/>
        <lane id=":-15.250.00_0_1" index="1" speed="13.89" length="4.36" shape="592.00,1051.50 592.00,1048.50"/>
        <lane id=":-15.250.00_0_2" index="2" speed="13.89" length="4.36" shape="592.00,1051.50 595.20,1048.50"/>
        <lane id=":-15.250.00_0_3" index="3" speed="13.89" length="4.36" shape="592.00,1051.50 598.40,1048.50"/>
    </edge>
    <edge id=":-23.50.00_0" function="internal">
        <lane id=":-23.50.00_0_0" index="0" speed="13.89" length="4.36" shape="448.50,988.80 451.50,988.80"/>
        <lane id=":-23.50.00_0_1" index="1" speed="13.89" length="4.36" shape="448.50,992.00 451.50,992.00"/>
        <lane id=":-23.50.00_0_2" index="2" speed="13.89" length="4.36" shape="448.50,992.00 451.50,995.20"/>
        <lane id=":-23.50.00_0_3" index="3" speed="13.89" length="4.36" shape="448.50,992.00 451.50,998.40"/>
    </edge>
    <edge id=":-239.50.00_0" function="internal">
        <lane id=":-239.50.00_0_0" index="0" speed="13.89" length="4.36" shape="511.20,948.50 511.20,951.50"/>
        <lane id=":-239.50.00_0_1" index="1" speed="13.89" length="4.36" shape="508.00,948.50 508.00,951.50"/>
        <lane id=":-239.50.00_0_2" index="2" speed="13.89" length="4.36" shape="508.00,948.50 504.80,951.50"/>
        <lane id=":-239.50.00_0_3" index="3" speed="13.89" length="4.36" shape="508.00,948.50 501.60,951.50"/>
    </edge>
    <edge id=":-246.250.00_0" function="internal">
        <lane id=":-246.250.00_0_0" index="0" speed="13.89" length="4.36" shape="311.20,548.50 311.20,551.50"/>
        <lane id=":-246.250.00_0_1" index="1" speed="13.89" length="4.36" shape="308.00,548.50 308.00,551.50"/>
        <lane id=":-246.250.00_0_2" index="2" speed="13.89" length="4.36" shape="308.00,548.50 304.80,551.50"/>
        <lane id=":-246.250.00_0_3" index="3" speed="13.89" length="4.36" shape="308.00,548.50 301.60,551.50"/>
    </edge>
    <edge id=":-27.50.00_0" function="internal">
        <lane id=":-27.50.00_0_0" index="0" speed="13.89" length="4.36" shape="611.20,648.50 611.20,651.50"/>
        <lane id=":-27.50.00_0_1" index="1" speed="13.89" length="4.36" shape="608.00,648.50 608.00,651.50"/>
        <lane id=":-27.50.00_0_2" index="2" speed="13.89" length="4.36" shape="608.00,648.50 604.80,651.50"/>
        <lane id=":-27.50.00_0_3" index="3" speed="13.89" length="4.36" shape="608.00,648.50 601.60,651.50"/>
    </edge>
    <edge id=":-3.250.00_0" function="internal">
        <lane id=":-3.250.00_0_0" index="0" speed="13.89" length="4.36" shape="611.20,948.50 611.20,951.50"/>
        <lane id=":-3.250.00_0_1" index="1" speed="13.89" length="4.36" shape="608.00,948.50 608.00,951.50"/>
        <lane id=":-3.250.00_0_2" index="2" speed="13.89" length="4.36" shape="608.00,948.50 604.80,951.50"/>
        <lane id=":-3.250.00_0_3" index="3" speed="13.89" length="4.36" shape="608.00,948.50 601.60,951.50"/>
    </edge>
    <edge id=":-34.150.00_0" function="internal">
        <lane id=":-34.150.00_0_0" index="0" speed="13.89" length="4.36" shape="611.20,548.50 611.20,551.50"/>
        <lane id=":-34.150.00_0_1" index="1" speed="13.89" length="4.36" shape="608.00,548.50 608.00,551.50"/>
        <lane id=":-34.150.00_0_2" index="2" speed="13.89" length="4.36" shape="608.00,548.50 604.80,551.50"/>
        <lane id=":-34.150.00_0_3" index="3" speed="13.89" length="4.36" shape="608.00,548.50 601.60,551.50"/>
    </edge>
    <edge id=":-360.150.00_0" function="internal">
        <lane id=":-360.150.00_0_0" index="0" speed="13.89" length="4.36" shape="588.80,1351.50 588.80,1348.50"/>
        <lane id=":-360.150.00_0_1" index="1" speed="13.89" length="4.36" shape="592.00,1351.50 592.00,1348.50"/>
        <lane id=":-360.150.00_0_2" index="2" speed="13.89" length="4.36" shape="592.00,1351.50 595.20,1348.50"/>
        <lane id=":-360.150.00_0_3" index="3" speed="13.89" length="4.36" shape="592.00,1351.50 598.40,1348.50"/>
    </edge>
    <edge id=":-361.266.23_0" function="internal">
        <lane id=":-361.266.23_0_0" index="0" speed="13.89" length="4.36" shape="554.68,373.09 557.53,374.04"/>
        <lane id=":-361.266.23_0_1" index="1" speed="13.89" length="4.36" shape="553.67,376.12 556.52,377.07"/>
        <lane id=":-361.266.23_0_2" index="2" speed="13.89" length="4.36" shape="553.67,376.12 555.51,380.11"/>
        <lane id=":-361.266.23_0_3" index="3" speed="13.89" length="4.36" shape="553.67,376.12 554.49,383.15"/>
    </edge>
    <edge id=":-366.250.00_0" function="internal">
        <lane id=":-366.250.00_0_0" index="0" speed="13.89" length="4.36" shape="248.50,288.80 251.50,288.80"/>
        <lane id=":-366.250.00_0_1" index="1" speed="13.89" length="4.36" shape="248.50,292.00 251.50,292.00"/>
        <lane id=":-366.250.00_0_2" index="2" speed="13.89" length="4.36" shape="248.50,292.00 251.50,295.20"/>
        <lane id=":-366.250.00_0_3" index="3" speed="13.89" length="4.36" shape="248.50,292.00 251.50,298.40"/>
    </edge>
    <edge id=":-376.250.00_0" function="internal">
        <lane id=":-376.250.00_0_0" index="0" speed="13.89" length="4.36" shape="311.20,248.50 311.20,251.50"/>
        <lane id=":-376.250.00_0_1" index="1" speed="13.89" length="4.36" shape="308.00,248.50 308.00,251.50"/>
        <lane id=":-376.250.00_0_2" index="2" speed="13.89" length="4.36" shape="308.00,248.50 304.80,251.50"/>
        <lane id=":-376.250.00_0_3" index="3" speed="13.89" length="4.36" shape="308.00,248.50 301.60,251.50"/>
    </edge>
    <edge id=":-38.250.00_0" function="internal">
        <lane id=":-38.250.00_0_0" index="0" speed="13.89" length="4.36" shape="548.50,588.80 551.50,588.80"/>
        <lane id=":-38.250.00_0_1" index="1" speed="13.89" length="4.36" shape="548.50,592.00 551.50,592.00"/>
        <lane id=":-38.250.00_0_2" index="2" speed="13.89" length="4.36" shape="548.50,592.00 551.50,595.20"/>
        <lane id=":-38.250.00_0_3" index="3" speed="13.89" length="4.36" shape="548.50,592.00 551.50,598.40"/>
    </edge>
    <edge id=":-44.150.00_0" function="internal">
        <lane id=":-44.150.00_0_0" index="0" speed="13.89" length="4.36" shape="651.50,611.20 648.50,611.20"/>
        <lane id=":-44.150.00_0_1" index="1" speed="13.89" length="4.36" shape="651.50,608.00 648.50,608.00"/>
        <lane id=":-44.150.00_0_2" index="2" speed="13.89" length="4.36" shape="651.50,608.00 648.50,604.80"/>
        <lane id=":-44.150.00_0_3" index="3" speed="13.89" length="4.36" shape="651.50,608.00 648.50,601.60"/>
    </edge>
    <edge id=":-5.150.00_0" function="internal">
        <lane id=":-5.150.00_0_0" index="0" speed="13.89" length="4.36" shape="651.50,1011.20 648.50,1011.20"/>
        <lane id=":-5.150.00_0_1" index="1" speed="13.89" length="4.36" shape="651.50,1008.00 648.50,1008.00"/>
        <lane id=":-5.150.00_0_2" index="2" speed="13.89" length="4.36" shape="651.50,1008.00 648.50,1004.80"/>
        <lane id=":-5.150.00_0_3" index="3" speed="13.89" length="4.36" shape="651.50,1008.00 648.50,1001.60"/>
    </edge>
    <edge id=":-64.150.00_0" function="internal">
        <lane id=":-64.150.00_0_0" index="0" speed="13.89" length="4.36" shape="651.50,711.20 648.50,711.20"/>
        <lane id=":-64.150.00_0_1" index="1" speed="13.89" length="4.36" shape="651.50,708.00 648.50,708.00"/>
        <lane id=":-64.150.00_0_2" index="2" speed="13.89" length="4.36" shape="651.50,708.00 648.50,704.80"/>
        <lane id=":-64.150.00_0_3" index="3" speed="13.89" length="4.36" shape="651.50,708.00 648.50,701.60"/>
    </edge>
    <edge id=":-70.50.00_0" function="internal">
        <lane id=":-70.50.00_0_0" index="0" speed="13.89" length="4.36" shape="548.50,1288.80 551.50,1288.80"/>
        <lane id=":-70.50.00_0_1" index="1" speed="13.89" length="4.36" shape="548.50,1292.00 551.50,1292.00"/>
        <lane id=":-70.50.00_0_2" index="2" speed="13.89" length="4.36" shape="548.50,1292.00 551.50,1295.20"/>
        <lane id=":-70.50.00_0_3" index="3" speed="13.89" length="4.36" shape="548.50,1292.00 551.50,1298.40"/>
    </edge>
    <edge id=":-74.50.00_0" function="internal">
        <lane id=":-74.50.00_0_0" index="0" speed="13.89" length="4.36" shape="788.80,651.50 788.80,648.50"/>
        <lane id=":-74.50.00_0_1" index="1" speed="13.89" length="4.36" shape="792.00,651.50 792.00,648.50"/>
        <lane id=":-74.50.00_0_2" index="2" speed="13.89" length="4.36" shape="792.00,651.50 795.20,648.50"/>
        <lane id=":-74.50.00_0_3" index="3" speed="13.89" length="4.36" shape="792.00,651.50 798.40,648.50"/>
    </edge>
    <edge id=":-76.250.00_0" function="internal">
        <lane id=":-76.250.00_0_0" index="0" speed="13.89" length="4.36" shape="788.80,751.50 788.80,748.50"/>
        <lane id=":-76.250.00_0_1" index="1" speed="13.89" length="4.36" shape="792.00,751.50 792.00,748.50"/>
        <lane id=":-76.250.00_0_2" index="2" speed="13.89" length="4.36" shape="792.00,751.50 795.20,748.50"/>
        <lane id=":-76.250.00_0_3" index="3" speed="13.89" length="4.36" shape="792.00,751.50 798.40,748.50"/>
    </edge>
    <edge id=":-79.266.23_0" function="internal">
        <lane id=":-79.266.23_0_0" index="0" speed="13.89" length="4.36" shape="405.66,1052.40 404.71,1049.55"/>
        <lane id=":-79.266.23_0_1" index="1" speed="13.89" length="4.36" shape="408.70,1051.39 407.75,1048.54"/>
        <lane id=":-79.266.23_0_2" index="2" speed="13.89" length="4.36" shape="408.70,1051.39 410.78,1047.53"/>
        <lane id=":-79.266.23_0_3" index="3" speed="13.89" length="4.36" shape="408.70,1051.39 413.82,1046.52"/>
    </edge>
    <edge id=":-85.250.00_0" function="internal">
        <lane id=":-85.250.00_0_0" index="0" speed="13.89" length="4.36" shape="488.80,1351.50 488.80,1348.50"/>
        <lane id=":-85.250.00_0_1" index="1" speed="13.89" length="4.36" shape="492.00,1351.50 492.00,1348.50"/>
        <lane id=":-85.250.00_0_2" index="2" speed="13.89" length="4.36" shape="492.00,1351.50 495.20,1348.50"/>
        <lane id=":-85.250.00_0_3" index="3" speed="13.89" length="4.36" shape="492.00,1351.50 498.40,1348.50"/>
    </edge>
    <edge id=":-87.150.00_0" function="internal">
        <lane id=":-87.150.00_0_0" index="0" speed="13.89" length="4.36" shape="448.50,1288.80 451.50,1288.80"/>
        <lane id=":-87.150.00_0_1" index="1" speed="13.89" length="4.36" shape="448.50,1292.00 451.50,1292.00"/>
        <lane id=":-87.150.00_0_2" index="2" speed="13.89" length="4.36" shape="448.50,1292.00 451.50,1295.20"/>
        <lane id=":-87.150.00_0_3" index="3" speed="13.89" length="4.36" shape="448.50,1292.00 451.50,1298.40"/>
    </edge>
    <edge id=":1_0" function="internal">
        <lane id=":1_0_0" index="0" speed="13.89" length="5.00" shape="588.80,1014.30 588.61,1012.94 588.03,1011.97 587.06,1011.39 585.70,1011.20"/>
    </edge>
    <edge id=":1_1" function="internal">
        <lane id=":1_1_0" index="0" speed="13.89" length="28.60" shape="588.80,1014.30 588.80,985.70"/>
        <lane id=":1_1_1" index="1" speed="13.89" length="28.60" shape="592.00,1014.30 592.00,985.70"/>
    </edge>
    <edge id=":1_3" function="internal">
        <lane id=":1_3_0" index="0" speed="13.89" length="25.41" shape="595.20,1014.30 596.39,1004.54 599.98,997.58 605.94,993.39 606.40,993.32"/>
    </edge>
    <edge id=":1_4" function="internal">
        <lane id=":1_4_0" index="0" speed="13.89" length="11.14" shape="598.40,1014.30 600.80,1010.70 603.20,1009.50 605.60,1010.70 606.40,1011.90"/>
    </edge>
    <edge id=":1_24" function="internal">
        <lane id=":1_24_0" index="0" speed="13.89" length="8.01" shape="606.40,993.32 614.30,992.00"/>
    </edge>
    <edge id=":1_25" function="internal">
        <lane id=":1_25_0" index="0" speed="13.89" length="2.88" shape="606.40,1011.90 608.00,1014.30"/>
    </edge>
    <edge id=":1_5" function="internal">
        <lane id=":1_5_0" index="0" speed="13.89" length="5.00" shape="614.30,1011.20 612.94,1011.39 611.98,1011.98 611.39,1012.94 611.20,1014.30"/>
    </edge>
    <edge id=":1_6" function="internal">
        <lane id=":1_6_0" index="0" speed="13.89" length="10.16" shape="614.30,1008.00 611.54,1008.39 609.58,1009.58 608.39,1011.54 608.00,1014.30"/>
    </edge>
    <edge id=":1_7" function="internal">
        <lane id=":1_7_0" index="0" speed="13.89" length="28.82" shape="614.30,1008.00 605.17,1008.50 598.35,1009.60 592.36,1010.70 585.70,1011.20"/>
        <lane id=":1_7_1" index="1" speed="13.89" length="28.82" shape="614.30,1004.80 605.17,1005.30 598.35,1006.40 592.36,1007.50 585.70,1008.00"/>
    </edge>
    <edge id=":1_9" function="internal">
        <lane id=":1_9_0" index="0" speed="13.89" length="36.11" shape="614.30,1004.80 603.14,1003.61 595.18,1000.02 590.39,994.06 588.80,985.70"/>
    </edge>
    <edge id=":1_10" function="internal">
        <lane id=":1_10_0" index="0" speed="13.89" length="30.97" shape="614.30,1001.60 604.54,1000.61 597.58,997.62 593.39,992.66 592.00,985.70"/>
    </edge>
    <edge id=":1_11" function="internal">
        <lane id=":1_11_0" index="0" speed="13.89" length="14.02" shape="614.30,1001.60 610.70,999.20 609.50,996.80 610.70,994.40 614.30,992.00"/>
    </edge>
    <edge id=":1_12" function="internal">
        <lane id=":1_12_0" index="0" speed="13.89" length="5.00" shape="611.20,985.70 611.39,987.06 611.98,988.03 612.94,988.61 614.30,988.80"/>
    </edge>
    <edge id=":1_13" function="internal">
        <lane id=":1_13_0" index="0" speed="13.89" length="28.60" shape="611.20,985.70 611.20,1014.30"/>
        <lane id=":1_13_1" index="1" speed="13.89" length="28.60" shape="608.00,985.70 608.00,1014.30"/>
    </edge>
    <edge id=":1_15" function="internal">
        <lane id=":1_15_0" index="0" speed="13.89" length="25.41" shape="604.80,985.70 603.61,995.46 600.03,1002.42 594.06,1006.61 593.60,1006.68"/>
    </edge>
    <edge id=":1_16" function="internal">
        <lane id=":1_16_0" index="0" speed="13.89" length="11.14" shape="601.60,985.70 599.20,989.30 596.80,990.50 594.40,989.30 593.60,988.10"/>
    </edge>
    <edge id=":1_26" function="internal">
        <lane id=":1_26_0" index="0" speed="13.89" length="8.01" shape="593.60,1006.68 585.70,1008.00"/>
    </edge>
    <edge id=":1_27" function="internal">
        <lane id=":1_27_0" index="0" speed="13.89" length="2.88" shape="593.60,988.10 592.00,985.70"/>
    </edge>
    <edge id=":1_17" function="internal">
        <lane id=":1_17_0" index="0" speed="13.89" length="5.00" shape="585.70,988.80 587.06,988.61 588.03,988.02 588.61,987.06 588.80,985.70"/>
    </edge>
    <edge id=":1_18" function="internal">
        <lane id=":1_18_0" index="0" speed="13.89" length="10.16" shape="585.70,992.00 588.46,991.61 590.43,990.42 591.61,988.46 592.00,985.70"/>
    </edge>
    <edge id=":1_19" function="internal">
        <lane id=":1_19_0" index="0" speed="13.89" length="28.82" shape="585.70,992.00 594.83,991.50 601.65,990.40 607.64,989.30 614.30,988.80"/>
        <lane id=":1_19_1" index="1" speed="13.89" length="28.82" shape="585.70,995.20 594.83,994.70 601.65,993.60 607.64,992.50 614.30,992.00"/>
    </edge>
    <edge id=":1_21" function="internal">
        <lane id=":1_21_0" index="0" speed="13.89" length="36.11" shape="585.70,995.20 596.86,996.39 604.83,999.98 609.61,1005.94 611.20,1014.30"/>
    </edge>
    <edge id=":1_22" function="internal">
        <lane id=":1_22_0" index="0" speed="13.89" length="30.97" shape="585.70,998.40 595.46,999.39 602.43,1002.38 606.61,1007.34 608.00,1014.30"/>
    </edge>
    <edge id=":1_23" function="internal">
        <lane id=":1_23_0" index="0" speed="13.89" length="14.02" shape="585.70,998.40 589.30,1000.80 590.50,1003.20 589.30,1005.60 585.70,1008.00"/>
    </edge>
    <edge id=":10_0" function="internal">
        <lane id=":10_0_0" index="0" speed="13.89" length="28.60" shape="514.30,1011.20 485.70,1011.20"/>
        <lane id=":10_0_1" index="1" speed="13.89" length="28.60" shape="514.30,1008.00 485.70,1008.00"/>
    </edge>
    <edge id=":10_2" function="internal">
        <lane id=":10_2_0" index="0" speed="13.89" length="25.41" shape="514.30,1004.80 504.54,1003.61 497.58,1000.02 493.39,994.06 493.32,993.60"/>
    </edge>
    <edge id=":10_3" function="internal">
        <lane id=":10_3_0" index="0" speed="13.89" length="11.14" shape="514.30,1001.60 510.70,999.20 509.50,996.80 510.70,994.40 511.90,993.60"/>
    </edge>
    <edge id=":10_13" function="internal">
        <lane id=":10_13_0" index="0" speed="13.89" length="8.01" shape="493.32,993.60 492.00,985.70"/>
    </edge>
    <edge id=":10_14" function="internal">
        <lane id=":10_14_0" index="0" speed="13.89" length="2.88" shape="511.90,993.60 514.30,992.00"/>
    </edge>
    <edge id=":10_4" function="internal">
        <lane id=":10_4_0" index="0" speed="13.89" length="5.00" shape="511.20,985.70 511.39,987.06 511.98,988.03 512.94,988.61 514.30,988.80"/>
    </edge>
    <edge id=":10_5" function="internal">
        <lane id=":10_5_0" index="0" speed="13.89" length="10.16" shape="508.00,985.70 508.39,988.46 509.58,990.42 511.54,991.61 514.30,992.00"/>
    </edge>
    <edge id=":10_6" function="internal">
        <lane id=":10_6_0" index="0" speed="13.89" length="36.11" shape="504.80,985.70 503.61,996.86 500.03,1004.82 494.06,1009.61 485.70,1011.20"/>
    </edge>
    <edge id=":10_7" function="internal">
        <lane id=":10_7_0" index="0" speed="13.89" length="30.97" shape="501.60,985.70 500.61,995.46 497.63,1002.42 492.66,1006.61 485.70,1008.00"/>
    </edge>
    <edge id=":10_8" function="internal">
        <lane id=":10_8_0" index="0" speed="13.89" length="14.02" shape="501.60,985.70 499.20,989.30 496.80,990.50 494.40,989.30 492.00,985.70"/>
    </edge>
    <edge id=":10_9" function="internal">
        <lane id=":10_9_0" index="0" speed="13.89" length="5.00" shape="485.70,988.80 487.06,988.61 488.03,988.02 488.61,987.06 488.80,985.70"/>
    </edge>
    <edge id=":10_10" function="internal">
        <lane id=":10_10_0" index="0" speed="13.89" length="28.60" shape="485.70,988.80 514.30,988.80"/>
        <lane id=":10_10_1" index="1" speed="13.89" length="28.60" shape="485.70,992.00 514.30,992.00"/>
    </edge>
    <edge id=":10_12" function="internal">
        <lane id=":10_12_0" index="0" speed="13.89" length="11.14" shape="485.70,998.40 489.30,1000.80 490.50,1003.20 489.30,1005.60 488.10,1006.40"/>
    </edge>
    <edge id=":10_15" function="internal">
        <lane id=":10_15_0" index="0" speed="13.89" length="2.88" shape="488.10,1006.40 485.70,1008.00"/>
    </edge>
    <edge id=":100_0" function="internal">
        <lane id=":100_0_0" index="0" speed="13.89" length="33.77" shape="288.80,908.35 288.80,874.58"/>
        <lane id=":100_0_1" index="1" speed="13.89" length="33.77" shape="292.00,908.35 292.00,874.58"/>
    </edge>
    <edge id=":100_2" function="internal">
        <lane id=":100_2_0" index="0" speed="13.89" length="24.38" shape="295.20,908.35 296.54,900.99 300.58,893.69 306.40,887.41"/>
    </edge>
    <edge id=":100_3" function="internal">
        <lane id=":100_3_0" index="0" speed="13.89" length="11.14" shape="298.40,908.35 300.80,904.75 303.20,903.55 305.60,904.75 306.40,905.95"/>
    </edge>
    <edge id=":100_13" function="internal">
        <lane id=":100_13_0" index="0" speed="13.89" length="13.17" shape="306.40,887.41 307.30,886.44 316.71,879.24"/>
    </edge>
    <edge id=":100_14" function="internal">
        <lane id=":100_14_0" index="0" speed="13.89" length="2.88" shape="306.40,905.95 308.00,908.35"/>
    </edge>
    <edge id=":100_4" function="internal">
        <lane id=":100_4_0" index="0" speed="13.89" length="20.98" shape="327.36,895.22 320.29,900.08 315.24,903.89 312.21,906.65 311.20,908.35"/>
    </edge>
    <edge id=":100_5" function="internal">
        <lane id=":100_5_0" index="0" speed="13.89" length="23.98" shape="325.59,892.56 317.89,897.94 312.40,902.37 309.10,905.84 308.00,908.35"/>
    </edge>
    <edge id=":100_6" function="internal">
        <lane id=":100_6_0" index="0" speed="13.89" length="53.85" shape="323.81,889.90 308.49,897.69 297.55,897.74 290.99,890.03 288.80,874.58"/>
    </edge>
    <edge id=":100_7" function="internal">
        <lane id=":100_7_0" index="0" speed="13.89" length="45.89" shape="322.04,887.23 308.90,893.95 299.51,894.08 293.88,887.63 292.00,874.58"/>
    </edge>
    <edge id=":100_8" function="internal">
        <lane id=":100_8_0" index="0" speed="13.89" length="14.02" shape="322.04,887.23 317.71,887.23 315.38,885.90 315.05,883.24 316.71,879.24"/>
    </edge>
    <edge id=":100_9" function="internal">
        <lane id=":100_9_0" index="0" speed="13.89" length="5.99" shape="311.20,874.58 311.43,876.39 312.13,877.33 313.30,877.39 314.94,876.58"/>
    </edge>
    <edge id=":100_10" function="internal">
        <lane id=":100_10_0" index="0" speed="13.89" length="33.77" shape="311.20,874.58 311.20,908.35"/>
        <lane id=":100_10_1" index="1" speed="13.89" length="33.77" shape="308.00,874.58 308.00,908.35"/>
    </edge>
    <edge id=":100_12" function="internal">
        <lane id=":100_12_0" index="0" speed="13.89" length="11.14" shape="301.60,874.58 299.20,878.18 296.80,879.38 294.40,878.18 293.60,876.98"/>
    </edge>
    <edge id=":100_15" function="internal">
        <lane id=":100_15_0" index="0" speed="13.89" length="2.88" shape="293.60,876.98 292.00,874.58"/>
    </edge>
    <edge id=":101.250.00_0" function="internal">
        <lane id=":101.250.00_0_0" index="0" speed="13.89" length="4.36" shape="311.20,848.50 311.20,851.50"/>
        <lane id=":101.250.00_0_1" index="1" speed="13.89" length="4.36" shape="308.00,848.50 308.00,851.50"/>
        <lane id=":101.250.00_0_2" index="2" speed="13.89" length="4.36" shape="308.00,848.50 304.80,851.50"/>
        <lane id=":101.250.00_0_3" index="3" speed="13.89" length="4.36" shape="308.00,848.50 301.60,851.50"/>
    </edge>
    <edge id=":109.350.00_0" function="internal">
        <lane id=":109.350.00_0_0" index="0" speed="13.89" length="4.36" shape="288.80,951.50 288.80,948.50"/>
        <lane id=":109.350.00_0_1" index="1" speed="13.89" length="4.36" shape="292.00,951.50 292.00,948.50"/>
        <lane id=":109.350.00_0_2" index="2" speed="13.89" length="4.36" shape="292.00,951.50 295.20,948.50"/>
        <lane id=":109.350.00_0_3" index="3" speed="13.89" length="4.36" shape="292.00,951.50 298.40,948.50"/>
    </edge>
    <edge id=":11.50.00_0" function="internal">
        <lane id=":11.50.00_0_0" index="0" speed="13.89" length="4.36" shape="551.50,1011.20 548.50,1011.20"/>
        <lane id=":11.50.00_0_1" index="1" speed="13.89" length="4.36" shape="551.50,1008.00 548.50,1008.00"/>
        <lane id=":11.50.00_0_2" index="2" speed="13.89" length="4.36" shape="551.50,1008.00 548.50,1004.80"/>
        <lane id=":11.50.00_0_3" index="3" speed="13.89" length="4.36" shape="551.50,1008.00 548.50,1001.60"/>
    </edge>
    <edge id=":113.310.56_0" function="internal">
        <lane id=":113.310.56_0_0" index="0" speed="13.89" length="4.36" shape="550.94,719.25 553.43,717.58"/>
        <lane id=":113.310.56_0_1" index="1" speed="13.89" length="4.36" shape="552.71,721.91 555.21,720.25"/>
        <lane id=":113.310.56_0_2" index="2" speed="13.89" length="4.36" shape="552.71,721.91 556.98,722.91"/>
        <lane id=":113.310.56_0_3" index="3" speed="13.89" length="4.36" shape="552.71,721.91 558.76,725.57"/>
    </edge>
    <edge id=":14_0" function="internal">
        <lane id=":14_0_0" index="0" speed="13.89" length="5.00" shape="588.80,1314.30 588.61,1312.94 588.03,1311.97 587.06,1311.39 585.70,1311.20"/>
    </edge>
    <edge id=":14_1" function="internal">
        <lane id=":14_1_0" index="0" speed="13.89" length="28.60" shape="588.80,1314.30 588.80,1285.70"/>
        <lane id=":14_1_1" index="1" speed="13.89" length="28.60" shape="592.00,1314.30 592.00,1285.70"/>
    </edge>
    <edge id=":14_3" function="internal">
        <lane id=":14_3_0" index="0" speed="13.89" length="11.14" shape="598.40,1314.30 600.80,1310.70 603.20,1309.50 605.60,1310.70 606.40,1311.90"/>
    </edge>
    <edge id=":14_13" function="internal">
        <lane id=":14_13_0" index="0" speed="13.89" length="2.88" shape="606.40,1311.90 608.00,1314.30"/>
    </edge>
    <edge id=":14_4" function="internal">
        <lane id=":14_4_0" index="0" speed="13.89" length="28.60" shape="611.20,1285.70 611.20,1314.30"/>
        <lane id=":14_4_1" index="1" speed="13.89" length="28.60" shape="608.00,1285.70 608.00,1314.30"/>
    </edge>
    <edge id=":14_6" function="internal">
        <lane id=":14_6_0" index="0" speed="13.89" length="25.41" shape="604.80,1285.70 603.61,1295.46 600.03,1302.42 594.06,1306.61 593.60,1306.68"/>
    </edge>
    <edge id=":14_7" function="internal">
        <lane id=":14_7_0" index="0" speed="13.89" length="11.14" shape="601.60,1285.70 599.20,1289.30 596.80,1290.50 594.40,1289.30 593.60,1288.10"/>
    </edge>
    <edge id=":14_14" function="internal">
        <lane id=":14_14_0" index="0" speed="13.89" length="8.01" shape="593.60,1306.68 585.70,1308.00"/>
    </edge>
    <edge id=":14_15" function="internal">
        <lane id=":14_15_0" index="0" speed="13.89" length="2.88" shape="593.60,1288.10 592.00,1285.70"/>
    </edge>
    <edge id=":14_8" function="internal">
        <lane id=":14_8_0" index="0" speed="13.89" length="5.00" shape="585.70,1288.80 587.06,1288.61 588.03,1288.02 588.61,1287.06 588.80,1285.70"/>
    </edge>
    <edge id=":14_9" function="internal">
        <lane id=":14_9_0" index="0" speed="13.89" length="10.16" shape="585.70,1292.00 588.46,1291.61 590.43,1290.42 591.61,1288.46 592.00,1285.70"/>
    </edge>
    <edge id=":14_10" function="internal">
        <lane id=":14_10_0" index="0" speed="13.89" length="36.11" shape="585.70,1295.20 596.86,1296.39 604.83,1299.98 609.61,1305.94 611.20,1314.30"/>
    </edge>
    <edge id=":14_11" function="internal">
        <lane id=":14_11_0" index="0" speed="13.89" length="30.97" shape="585.70,1298.40 595.46,1299.39 602.43,1302.38 606.61,1307.34 608.00,1314.30"/>
    </edge>
    <edge id=":14_12" function="internal">
        <lane id=":14_12_0" index="0" speed="13.89" length="14.02" shape="585.70,1298.40 589.30,1300.80 590.50,1303.20 589.30,1305.60 585.70,1308.00"/>
    </edge>
    <edge id=":15.250.00_0" function="internal">
        <lane id=":15.250.00_0_0" index="0" speed="13.89" length="4.36" shape="611.20,1248.50 611.20,1251.50"/>