<?xml version="1.0" encoding="UTF-8"?>

<!-- generated on Wed May 23 12:23:34 2018 by Eclipse SUMO netgenerate Version 6aff410
This data file and the accompanying materials
are made available under the terms of the Eclipse Public License v2.0
which accompanies this distribution, and is available at
http://www.eclipse.org/legal/epl-v20.html
SPDX-License-Identifier: EPL-2.0
<configuration xmlns:xsi="http://www.w3.org/2001/XMLSchema-instance" xsi:noNamespaceSchemaLocation="http://sumo.dlr.de/xsd/netgenerateConfiguration.xsd">

    <random_network>
        <rand value="true"/>
        <rand.iterations value="20"/>
        <rand.max-distance value="400"/>
        <rand.min-distance value="100"/>
        <rand.grid value="true"/>
    </random_network>

    <output>
        <write-license value="true"/>
        <output-file value="net.net.xml"/>
    </output>

    <processing>
        <turn-lanes value="2"/>
        <turn-lanes.length value="50"/>
    </processing>

    <building_defaults>
        <default.lanenumber value="2"/>
    </building_defaults>

    <report>
        <xml-validation value="never"/>
    </report>

</configuration>
-->

<net version="0.27" xmlns:xsi="http://www.w3.org/2001/XMLSchema-instance" xsi:noNamespaceSchemaLocation="http://sumo.dlr.de/xsd/net_file.xsd">

    <location netOffset="600.00,1000.00" convBoundary="0.00,0.00,806.40,1600.00" origBoundary="-600.00,-1000.00,200.00,600.00" projParameter="!"/>

    <edge id=":-101.250.00_0" function="internal">
        <lane id=":-101.250.00_0_0" index="0" speed="13.89" length="4.36" shape="288.80,651.50 288.80,648.50"/>
        <lane id=":-101.250.00_0_1" index="1" speed="13.89" length="4.36" shape="292.00,651.50 292.00,648.50"/>
        <lane id=":-101.250.00_0_2" index="2" speed="13.89" length="4.36" shape="292.00,651.50 295.20,648.50"/>
        <lane id=":-101.250.00_0_3" index="3" speed="13.89" length="4.36" shape="292.00,651.50 298.40,648.50"/>
    </edge>
    <edge id=":-11.50.00_0" function="internal">
        <lane id=":-11.50.00_0_0" index="0" speed="13.89" length="4.36" shape="548.50,988.80 551.50,988.80"/>
        <lane id=":-11.50.00_0_1" index="1" speed="13.89" length="4.36" shape="548.50,992.00 551.50,992.00"/>
        <lane id=":-11.50.00_0_2" index="2" speed="13.89" length="4.36" shape="548.50,992.00 551.50,995.20"/>
        <lane id=":-11.50.00_0_3" index="3" speed="13.89" length="4.36" shape="548.50,992.00 551.50,998.40"/>
    </edge>
    <edge id=":-113.310.56_0" function="internal">
        <lane id=":-113.310.56_0_0" index="0" speed="13.89" length="4.36" shape="349.06,880.75 346.57,882.42"/>
        <lane id=":-113.310.56_0_1" index="1" speed="13.89" length="4.36" shape="347.29,878.09 344.79,879.75"/>
        <lane id=":-113.310.56_0_2" index="2" speed="13.89" length="4.36" shape="347.29,878.09 343.02,877.09"/>
        <lane id=":-113.310.56_0_3" index="3" speed="13.89" length="4.36" shape="347.29,878.09 341.24,874.43"/>
    </edge>
    <edge id=":-15.250.00_0" function="internal">
        <lane id=":-15.250.00_0_0" index="0" speed="13.89" length="4.36" shape="588.80,1051.50 588.80,1048.50"/>
        <lane id=":-15.250.00_0_1" index="1" speed="13.89" length="4.36" shape="592.00,1051.50 592.00,1048.50"/>
        <lane id=":-15.250.00_0_2" index="2" speed="13.89" length="4.36" shape="592.00,1051.50 595.20,1048.50"/>
        <lane id=":-15.250.00_0_3" index="3" speed="13.89" length="4.36" shape="592.00,1051.50 598.40,1048.50"/>
    </edge>
    <edge id=":-23.50.00_0" function="internal">
        <lane id=":-23.50.00_0_0" index="0" speed="13.89" length="4.36" shape="448.50,988.80 451.50,988.80"/>
        <lane id=":-23.50.00_0_1" index="1" speed="13.89" length="4.36" shape="448.50,992.00 451.50,992.00"/>
        <lane id=":-23.50.00_0_2" index="2" speed="13.89" length="4.36" shape="448.50,992.00 451.50,995.20"/>
        <lane id=":-23.50.00_0_3" index="3" speed="13.89" length="4.36" shape="448.50,992.00 451.50,998.40"/>
    </edge>
    <edge id=":-239.50.00_0" function="internal">
        <lane id=":-239.50.00_0_0" index="0" speed="13.89" length="4.36" shape="511.20,948.50 511.20,951.50"/>
        <lane id=":-239.50.00_0_1" index="1" speed="13.89" length="4.36" shape="508.00,948.50 508.00,951.50"/>
        <lane id=":-239.50.00_0_2" index="2" speed="13.89" length="4.36" shape="508.00,948.50 504.80,951.50"/>
        <lane id=":-239.50.00_0_3" index="3" speed="13.89" length="4.36" shape="508.00,948.50 501.60,951.50"/>
    </edge>
    <edge id=":-246.250.00_0" function="internal">
        <lane id=":-246.250.00_0_0" index="0" speed="13.89" length="4.36" shape="311.20,548.50 311.20,551.50"/>
        <lane id=":-246.250.00_0_1" index="1" speed="13.89" length="4.36" shape="308.00,548.50 308.00,551.50"/>
        <lane id=":-246.250.00_0_2" index="2" speed="13.89" length="4.36" shape="308.00,548.50 304.80,551.50"/>
        <lane id=":-246.250.00_0_3" index="3" speed="13.89" length="4.36" shape="308.00,548.50 301.60,551.50"/>
    </edge>
    <edge id=":-27.50.00_0" function="internal">
        <lane id=":-27.50.00_0_0" index="0" speed="13.89" length="4.36" shape="611.20,648.50 611.20,651.50"/>
        <lane id=":-27.50.00_0_1" index="1" speed="13.89" length="4.36" shape="608.00,648.50 608.00,651.50"/>
        <lane id=":-27.50.00_0_2" index="2" speed="13.89" length="4.36" shape="608.00,648.50 604.80,651.50"/>
        <lane id=":-27.50.00_0_3" index="3" speed="13.89" length="4.36" shape="608.00,648.50 601.60,651.50"/>
    </edge>
    <edge id=":-3.250.00_0" function="internal">
        <lane id=":-3.250.00_0_0" index="0" speed="13.89" length="4.36" shape="611.20,948.50 611.20,951.50"/>
        <lane id=":-3.250.00_0_1" index="1" speed="13.89" length="4.36" shape="608.00,948.50 608.00,951.50"/>
        <lane id=":-3.250.00_0_2" index="2" speed="13.89" length="4.36" shape="608.00,948.50 604.80,951.50"/>
        <lane id=":-3.250.00_0_3" index="3" speed="13.89" length="4.36" shape="608.00,948.50 601.60,951.50"/>
    </edge>
    <edge id=":-34.150.00_0" function="internal">
        <lane id=":-34.150.00_0_0" index="0" speed="13.89" length="4.36" shape="611.20,548.50 611.20,551.50"/>
        <lane id=":-34.150.00_0_1" index="1" speed="13.89" length="4.36" shape="608.00,548.50 608.00,551.50"/>
        <lane id=":-34.150.00_0_2" index="2" speed="13.89" length="4.36" shape="608.00,548.50 604.80,551.50"/>
        <lane id=":-34.150.00_0_3" index="3" speed="13.89" length="4.36" shape="608.00,548.50 601.60,551.50"/>
    </edge>
    <edge id=":-360.150.00_0" function="internal">
        <lane id=":-360.150.00_0_0" index="0" speed="13.89" length="4.36" shape="588.80,1351.50 588.80,1348.50"/>
        <lane id=":-360.150.00_0_1" index="1" speed="13.89" length="4.36" shape="592.00,1351.50 592.00,1348.50"/>
        <lane id=":-360.150.00_0_2" index="2" speed="13.89" length="4.36" shape="592.00,1351.50 595.20,1348.50"/>
        <lane id=":-360.150.00_0_3" index="3" speed="13.89" length="4.36" shape="592.00,1351.50 598.40,1348.50"/>
    </edge>
    <edge id=":-366.250.00_0" function="internal">
        <lane id=":-366.250.00_0_0" index="0" speed="13.89" length="4.36" shape="248.50,288.80 251.50,288.80"/>
        <lane id=":-366.250.00_0_1" index="1" speed="13.89" length="4.36" shape="248.50,292.00 251.50,292.00"/>
        <lane id=":-366.250.00_0_2" index="2" speed="13.89" length="4.36" shape="248.50,292.00 251.50,295.20"/>
        <lane id=":-366.250.00_0_3" index="3" speed="13.89" length="4.36" shape="248.50,292.00 251.50,298.40"/>
    </edge>
    <edge id=":-376.250.00_0" function="internal">
        <lane id=":-376.250.00_0_0" index="0" speed="13.89" length="4.36" shape="311.20,248.50 311.20,251.50"/>
        <lane id=":-376.250.00_0_1" index="1" speed="13.89" length="4.36" shape="308.00,248.50 308.00,251.50"/>
        <lane id=":-376.250.00_0_2" index="2" speed="13.89" length="4.36" shape="308.00,248.50 304.80,251.50"/>
        <lane id=":-376.250.00_0_3" index="3" speed="13.89" length="4.36" shape="308.00,248.50 301.60,251.50"/>
    </edge>
    <edge id=":-38.250.00_0" function="internal">
        <lane id=":-38.250.00_0_0" index="0" speed="13.89" length="4.36" shape="548.50,588.80 551.50,588.80"/>
        <lane id=":-38.250.00_0_1" index="1" speed="13.89" length="4.36" shape="548.50,592.00 551.50,592.00"/>
        <lane id=":-38.250.00_0_2" index="2" speed="13.89" length="4.36" shape="548.50,592.00 551.50,595.20"/>
        <lane id=":-38.250.00_0_3" index="3" speed="13.89" length="4.36" shape="548.50,592.00 551.50,598.40"/>
    </edge>
    <edge id=":-44.150.00_0" function="internal">
        <lane id=":-44.150.00_0_0" index="0" speed="13.89" length="4.36" shape="651.50,611.20 648.50,611.20"/>
        <lane id=":-44.150.00_0_1" index="1" speed="13.89" length="4.36" shape="651.50,608.00 648.50,608.00"/>
        <lane id=":-44.150.00_0_2" index="2" speed="13.89" length="4.36" shape="651.50,608.00 648.50,604.80"/>
        <lane id=":-44.150.00_0_3" index="3" speed="13.89" length="4.36" shape="651.50,608.00 648.50,601.60"/>
    </edge>
    <edge id=":-5.150.00_0" function="internal">
        <lane id=":-5.150.00_0_0" index="0" speed="13.89" length="4.36" shape="651.50,1011.20 648.50,1011.20"/>
        <lane id=":-5.150.00_0_1" index="1" speed="13.89" length="4.36" shape="651.50,1008.00 648.50,1008.00"/>
        <lane id=":-5.150.00_0_2" index="2" speed="13.89" length="4.36" shape="651.50,1008.00 648.50,1004.80"/>
        <lane id=":-5.150.00_0_3" index="3" speed="13.89" length="4.36" shape="651.50,1008.00 648.50,1001.60"/>
    </edge>
    <edge id=":-64.150.00_0" function="internal">
        <lane id=":-64.150.00_0_0" index="0" speed="13.89" length="4.36" shape="651.50,711.20 648.50,711.20"/>
        <lane id=":-64.150.00_0_1" index="1" speed="13.89" length="4.36" shape="651.50,708.00 648.50,708.00"/>
        <lane id=":-64.150.00_0_2" index="2" speed="13.89" length="4.36" shape="651.50,708.00 648.50,704.80"/>
        <lane id=":-64.150.00_0_3" index="3" speed="13.89" length="4.36" shape="651.50,708.00 648.50,701.60"/>
    </edge>
    <edge id=":-70.50.00_0" function="internal">
        <lane id=":-70.50.00_0_0" index="0" speed="13.89" length="4.36" shape="548.50,1288.80 551.50,1288.80"/>
        <lane id=":-70.50.00_0_1" index="1" speed="13.89" length="4.36" shape="548.50,1292.00 551.50,1292.00"/>
        <lane id=":-70.50.00_0_2" index="2" speed="13.89" length="4.36" shape="548.50,1292.00 551.50,1295.20"/>
        <lane id=":-70.50.00_0_3" index="3" speed="13.89" length="4.36" shape="548.50,1292.00 551.50,1298.40"/>
    </edge>
    <edge id=":-76.250.00_0" function="internal">
        <lane id=":-76.250.00_0_0" index="0" speed="13.89" length="4.36" shape="788.80,751.50 788.80,748.50"/>
        <lane id=":-76.250.00_0_1" index="1" speed="13.89" length="4.36" shape="792.00,751.50 792.00,748.50"/>
        <lane id=":-76.250.00_0_2" index="2" speed="13.89" length="4.36" shape="792.00,751.50 795.20,748.50"/>
        <lane id=":-76.250.00_0_3" index="3" speed="13.89" length="4.36" shape="792.00,751.50 798.40,748.50"/>
    </edge>
    <edge id=":-85.250.00_0" function="internal">
        <lane id=":-85.250.00_0_0" index="0" speed="13.89" length="4.36" shape="488.80,1351.50 488.80,1348.50"/>
        <lane id=":-85.250.00_0_1" index="1" speed="13.89" length="4.36" shape="492.00,1351.50 492.00,1348.50"/>
        <lane id=":-85.250.00_0_2" index="2" speed="13.89" length="4.36" shape="492.00,1351.50 495.20,1348.50"/>
        <lane id=":-85.250.00_0_3" index="3" speed="13.89" length="4.36" shape="492.00,1351.50 498.40,1348.50"/>
    </edge>
    <edge id=":-87.150.00_0" function="internal">
        <lane id=":-87.150.00_0_0" index="0" speed="13.89" length="4.36" shape="448.50,1288.80 451.50,1288.80"/>
        <lane id=":-87.150.00_0_1" index="1" speed="13.89" length="4.36" shape="448.50,1292.00 451.50,1292.00"/>
        <lane id=":-87.150.00_0_2" index="2" speed="13.89" length="4.36" shape="448.50,1292.00 451.50,1295.20"/>
        <lane id=":-87.150.00_0_3" index="3" speed="13.89" length="4.36" shape="448.50,1292.00 451.50,1298.40"/>
    </edge>
    <edge id=":1_0" function="internal">
        <lane id=":1_0_0" index="0" speed="13.89" length="5.00" shape="588.80,1014.30 588.61,1012.94 588.03,1011.97 587.06,1011.39 585.70,1011.20"/>
    </edge>
    <edge id=":1_1" function="internal">
        <lane id=":1_1_0" index="0" speed="13.89" length="28.60" shape="588.80,1014.30 588.80,985.70"/>
        <lane id=":1_1_1" index="1" speed="13.89" length="28.60" shape="592.00,1014.30 592.00,985.70"/>
    </edge>
    <edge id=":1_3" function="internal">
        <lane id=":1_3_0" index="0" speed="13.89" length="20.31" shape="595.20,1014.30 596.39,1007.34 599.98,1002.38 605.94,999.39 606.40,999.34"/>
    </edge>
    <edge id=":1_4" function="internal">
        <lane id=":1_4_0" index="0" speed="13.89" length="11.14" shape="598.40,1014.30 600.80,1010.70 603.20,1009.50 605.60,1010.70 606.40,1011.90"/>
    </edge>
    <edge id=":1_24" function="internal">
        <lane id=":1_24_0" index="0" speed="13.89" length="7.96" shape="606.40,999.34 614.30,998.40"/>
    </edge>
    <edge id=":1_25" function="internal">
        <lane id=":1_25_0" index="0" speed="13.89" length="2.88" shape="606.40,1011.90 608.00,1014.30"/>
    </edge>
    <edge id=":1_5" function="internal">
        <lane id=":1_5_0" index="0" speed="13.89" length="5.00" shape="614.30,1011.20 612.94,1011.39 611.98,1011.98 611.39,1012.94 611.20,1014.30"/>
    </edge>
    <edge id=":1_6" function="internal">
        <lane id=":1_6_0" index="0" speed="13.89" length="10.16" shape="614.30,1008.00 611.54,1008.39 609.58,1009.58 608.39,1011.54 608.00,1014.30"/>
    </edge>
    <edge id=":1_7" function="internal">
        <lane id=":1_7_0" index="0" speed="13.89" length="28.82" shape="614.30,1008.00 605.17,1008.50 598.35,1009.60 592.36,1010.70 585.70,1011.20"/>
        <lane id=":1_7_1" index="1" speed="13.89" length="28.82" shape="614.30,1004.80 605.17,1005.30 598.35,1006.40 592.36,1007.50 585.70,1008.00"/>
    </edge>
    <edge id=":1_9" function="internal">
        <lane id=":1_9_0" index="0" speed="13.89" length="36.11" shape="614.30,1004.80 603.14,1003.61 595.18,1000.02 590.39,994.06 588.80,985.70"/>
    </edge>
    <edge id=":1_10" function="internal">
        <lane id=":1_10_0" index="0" speed="13.89" length="30.97" shape="614.30,1001.60 604.54,1000.61 597.58,997.62 593.39,992.66 592.00,985.70"/>
    </edge>
    <edge id=":1_11" function="internal">
        <lane id=":1_11_0" index="0" speed="13.89" length="4.67" shape="614.30,1001.60 613.10,1000.80 612.70,1000.00 613.10,999.20 614.30,998.40"/>
    </edge>
    <edge id=":1_12" function="internal">
        <lane id=":1_12_0" index="0" speed="13.89" length="10.69" shape="611.20,985.70 611.39,989.86 611.98,992.83 612.94,994.61 614.30,995.20"/>
    </edge>
    <edge id=":1_13" function="internal">
        <lane id=":1_13_0" index="0" speed="13.89" length="28.60" shape="611.20,985.70 611.20,1014.30"/>
        <lane id=":1_13_1" index="1" speed="13.89" length="28.60" shape="608.00,985.70 608.00,1014.30"/>
    </edge>
    <edge id=":1_15" function="internal">
        <lane id=":1_15_0" index="0" speed="13.89" length="25.41" shape="604.80,985.70 603.61,995.46 600.03,1002.42 594.06,1006.61 593.60,1006.68"/>
    </edge>
    <edge id=":1_16" function="internal">
        <lane id=":1_16_0" index="0" speed="13.89" length="11.14" shape="601.60,985.70 599.20,989.30 596.80,990.50 594.40,989.30 593.60,988.10"/>
    </edge>
    <edge id=":1_26" function="internal">
        <lane id=":1_26_0" index="0" speed="13.89" length="8.01" shape="593.60,1006.68 585.70,1008.00"/>
    </edge>
    <edge id=":1_27" function="internal">
        <lane id=":1_27_0" index="0" speed="13.89" length="2.88" shape="593.60,988.10 592.00,985.70"/>
    </edge>
    <edge id=":1_17" function="internal">
        <lane id=":1_17_0" index="0" speed="13.89" length="5.00" shape="585.70,988.80 587.06,988.61 588.03,988.02 588.61,987.06 588.80,985.70"/>
    </edge>
    <edge id=":1_18" function="internal">
        <lane id=":1_18_0" index="0" speed="13.89" length="10.16" shape="585.70,992.00 588.46,991.61 590.43,990.42 591.61,988.46 592.00,985.70"/>
    </edge>
    <edge id=":1_19" function="internal">
        <lane id=":1_19_0" index="0" speed="13.89" length="28.82" shape="585.70,992.00 594.83,992.50 601.65,993.60 607.64,994.70 614.30,995.20"/>
        <lane id=":1_19_1" index="1" speed="13.89" length="28.82" shape="585.70,995.20 594.83,995.70 601.65,996.80 607.64,997.90 614.30,998.40"/>
    </edge>
    <edge id=":1_21" function="internal">
        <lane id=":1_21_0" index="0" speed="13.89" length="36.11" shape="585.70,995.20 596.86,996.39 604.83,999.98 609.61,1005.94 611.20,1014.30"/>
    </edge>
    <edge id=":1_22" function="internal">
        <lane id=":1_22_0" index="0" speed="13.89" length="30.97" shape="585.70,998.40 595.46,999.39 602.43,1002.38 606.61,1007.34 608.00,1014.30"/>
    </edge>
    <edge id=":1_23" function="internal">
        <lane id=":1_23_0" index="0" speed="13.89" length="14.02" shape="585.70,998.40 589.30,1000.80 590.50,1003.20 589.30,1005.60 585.70,1008.00"/>
    </edge>
    <edge id=":10_0" function="internal">
        <lane id=":10_0_0" index="0" speed="13.89" length="23.35" shape="514.30,1011.20 507.36,1010.20 502.62,1008.00 498.16,1005.80 492.10,1004.80"/>
        <lane id=":10_0_1" index="1" speed="13.89" length="23.35" shape="514.30,1008.00 507.36,1007.00 502.62,1004.80 498.16,1002.60 492.10,1001.60"/>
    </edge>
    <edge id=":10_2" function="internal">
        <lane id=":10_2_0" index="0" speed="13.89" length="20.31" shape="514.30,1004.80 507.34,1003.61 502.38,1000.02 499.39,994.06 499.34,993.60"/>
    </edge>
    <edge id=":10_3" function="internal">
        <lane id=":10_3_0" index="0" speed="13.89" length="11.14" shape="514.30,1001.60 510.70,999.20 509.50,996.80 510.70,994.40 511.90,993.60"/>
    </edge>
    <edge id=":10_13" function="internal">
        <lane id=":10_13_0" index="0" speed="13.89" length="7.96" shape="499.34,993.60 498.40,985.70"/>
    </edge>
    <edge id=":10_14" function="internal">
        <lane id=":10_14_0" index="0" speed="13.89" length="2.88" shape="511.90,993.60 514.30,992.00"/>
    </edge>
    <edge id=":10_4" function="internal">
        <lane id=":10_4_0" index="0" speed="13.89" length="5.00" shape="511.20,985.70 511.39,987.06 511.98,988.03 512.94,988.61 514.30,988.80"/>
    </edge>
    <edge id=":10_5" function="internal">
        <lane id=":10_5_0" index="0" speed="13.89" length="10.16" shape="508.00,985.70 508.39,988.46 509.58,990.42 511.54,991.61 514.30,992.00"/>
    </edge>
    <edge id=":10_6" function="internal">
        <lane id=":10_6_0" index="0" speed="13.89" length="25.85" shape="504.80,985.70 504.01,994.06 501.63,1000.02 497.66,1003.61 492.10,1004.80"/>
    </edge>
    <edge id=":10_7" function="internal">
        <lane id=":10_7_0" index="0" speed="13.89" length="20.74" shape="501.60,985.70 501.01,992.66 499.23,997.62 496.26,1000.61 492.10,1001.60"/>
    </edge>
    <edge id=":10_8" function="internal">
        <lane id=":10_8_0" index="0" speed="13.89" length="4.67" shape="501.60,985.70 500.80,986.90 500.00,987.30 499.20,986.90 498.40,985.70"/>
    </edge>
    <edge id=":10_9" function="internal">
        <lane id=":10_9_0" index="0" speed="13.89" length="5.00" shape="492.10,988.80 493.46,988.61 494.43,988.02 495.01,987.06 495.20,985.70"/>
    </edge>
    <edge id=":10_10" function="internal">
        <lane id=":10_10_0" index="0" speed="13.89" length="22.20" shape="492.10,988.80 514.30,988.80"/>
        <lane id=":10_10_1" index="1" speed="13.89" length="22.20" shape="492.10,992.00 514.30,992.00"/>
    </edge>
    <edge id=":10_12" function="internal">
        <lane id=":10_12_0" index="0" speed="13.89" length="2.59" shape="492.10,998.40 493.30,999.20 493.70,1000.00 493.59,1000.22"/>
    </edge>
    <edge id=":10_15" function="internal">
        <lane id=":10_15_0" index="0" speed="13.89" length="2.09" shape="493.59,1000.22 493.30,1000.80 492.10,1001.60"/>
    </edge>
    <edge id=":100_0" function="internal">
        <lane id=":100_0_0" index="0" speed="13.89" length="38.03" shape="288.80,912.62 288.80,874.58"/>
        <lane id=":100_0_1" index="1" speed="13.89" length="38.03" shape="292.00,912.62 292.00,874.58"/>
    </edge>
    <edge id=":100_2" function="internal">
        <lane id=":100_2_0" index="0" speed="13.89" length="25.47" shape="295.20,912.62 296.54,903.39 300.58,894.76 304.82,889.68"/>
    </edge>
    <edge id=":100_3" function="internal">
        <lane id=":100_3_0" index="0" speed="13.89" length="2.55" shape="298.40,912.62 299.20,911.42 300.00,911.02 300.19,911.11"/>
    </edge>
    <edge id=":100_13" function="internal">
        <lane id=":100_13_0" index="0" speed="13.89" length="15.88" shape="304.82,889.68 307.30,886.71 316.71,879.24"/>
    </edge>
    <edge id=":100_14" function="internal">
        <lane id=":100_14_0" index="0" speed="13.89" length="2.13" shape="300.19,911.11 300.80,911.42 301.60,912.62"/>
    </edge>
    <edge id=":100_4" function="internal">
        <lane id=":100_4_0" index="0" speed="13.89" length="28.62" shape="327.36,895.22 317.49,901.95 310.44,907.09 306.21,910.65 304.80,912.62"/>
    </edge>
    <edge id=":100_5" function="internal">
        <lane id=":100_5_0" index="0" speed="13.89" length="31.57" shape="325.59,892.56 315.09,899.81 307.60,905.57 303.10,909.84 301.60,912.62"/>
    </edge>
    <edge id=":100_6" function="internal">
        <lane id=":100_6_0" index="0" speed="13.89" length="53.85" shape="323.81,889.90 308.49,897.69 297.55,897.74 290.99,890.03 288.80,874.58"/>
    </edge>
    <edge id=":100_7" function="internal">
        <lane id=":100_7_0" index="0" speed="13.89" length="45.89" shape="322.04,887.23 308.90,893.95 299.51,894.08 293.88,887.63 292.00,874.58"/>
    </edge>
    <edge id=":100_8" function="internal">
        <lane id=":100_8_0" index="0" speed="13.89" length="14.02" shape="322.04,887.23 317.71,887.23 315.38,885.90 315.05,883.24 316.71,879.24"/>
    </edge>
    <edge id=":100_9" function="internal">
        <lane id=":100_9_0" index="0" speed="13.89" length="5.99" shape="311.20,874.58 311.43,876.39 312.13,877.33 313.30,877.39 314.94,876.58"/>
    </edge>
    <edge id=":100_10" function="internal">
        <lane id=":100_10_0" index="0" speed="13.89" length="38.68" shape="311.20,874.58 310.20,887.26 308.00,897.08 305.80,905.17 304.80,912.62"/>
        <lane id=":100_10_1" index="1" speed="13.89" length="38.68" shape="308.00,874.58 307.00,887.26 304.80,897.08 302.60,905.17 301.60,912.62"/>
    </edge>
    <edge id=":100_12" function="internal">
        <lane id=":100_12_0" index="0" speed="13.89" length="11.14" shape="301.60,874.58 299.20,878.18 296.80,879.38 294.40,878.18 293.60,876.98"/>
    </edge>
    <edge id=":100_15" function="internal">
        <lane id=":100_15_0" index="0" speed="13.89" length="2.88" shape="293.60,876.98 292.00,874.58"/>
    </edge>
    <edge id=":101.250.00_0" function="internal">
        <lane id=":101.250.00_0_0" index="0" speed="13.89" length="4.36" shape="311.20,848.50 311.20,851.50"/>
        <lane id=":101.250.00_0_1" index="1" speed="13.89" length="4.36" shape="308.00,848.50 308.00,851.50"/>
        <lane id=":101.250.00_0_2" index="2" speed="13.89" length="4.36" shape="308.00,848.50 304.80,851.50"/>
        <lane id=":101.250.00_0_3" index="3" speed="13.89" length="4.36" shape="308.00,848.50 301.60,851.50"/>
    </edge>
    <edge id=":109.350.00_0" function="internal">
        <lane id=":109.350.00_0_0" index="0" speed="13.89" length="4.36" shape="288.80,951.50 288.80,948.50"/>
        <lane id=":109.350.00_0_1" index="1" speed="13.89" length="4.36" shape="292.00,951.50 292.00,948.50"/>
        <lane id=":109.350.00_0_2" index="2" speed="13.89" length="4.36" shape="292.00,951.50 295.20,948.50"/>
        <lane id=":109.350.00_0_3" index="3" speed="13.89" length="4.36" shape="292.00,951.50 298.40,948.50"/>
    </edge>
    <edge id=":11.50.00_0" function="internal">
        <lane id=":11.50.00_0_0" index="0" speed="13.89" length="4.36" shape="551.50,1011.20 548.50,1011.20"/>
        <lane id=":11.50.00_0_1" index="1" speed="13.89" length="4.36" shape="551.50,1008.00 548.50,1008.00"/>
        <lane id=":11.50.00_0_2" index="2" speed="13.89" length="4.36" shape="551.50,1008.00 548.50,1004.80"/>
        <lane id=":11.50.00_0_3" index="3" speed="13.89" length="4.36" shape="551.50,1008.00 548.50,1001.60"/>
    </edge>
    <edge id=":113.310.56_0" function="internal">
        <lane id=":113.310.56_0_0" index="0" speed="13.89" length="4.36" shape="550.94,719.25 553.43,717.58"/>
        <lane id=":113.310.56_0_1" index="1" speed="13.89" length="4.36" shape="552.71,721.91 555.21,720.25"/>
        <lane id=":113.310.56_0_2" index="2" speed="13.89" length="4.36" shape="552.71,721.91 556.98,722.91"/>
        <lane id=":113.310.56_0_3" index="3" speed="13.89" length="4.36" shape="552.71,721.91 558.76,725.57"/>
    </edge>
    <edge id=":14_0" function="internal">
        <lane id=":14_0_0" index="0" speed="13.89" length="5.00" shape="588.80,1314.30 588.61,1312.94 588.03,1311.97 587.06,1311.39 585.70,1311.20"/>
    </edge>
    <edge id=":14_1" function="internal">
        <lane id=":14_1_0" index="0" speed="13.89" length="28.60" shape="588.80,1314.30 588.80,1285.70"/>
        <lane id=":14_1_1" index="1" speed="13.89" length="28.60" shape="592.00,1314.30 592.00,1285.70"/>
    </edge>
    <edge id=":14_3" function="internal">
        <lane id=":14_3_0" index="0" speed="13.89" length="2.57" shape="598.40,1314.30 599.20,1313.10 600.00,1312.70 600.21,1312.80"/>
    </edge>
    <edge id=":14_13" function="internal">
        <lane id=":14_13_0" index="0" speed="13.89" length="2.10" shape="600.21,1312.80 600.80,1313.10 601.60,1314.30"/>
    </edge>
    <edge id=":14_4" function="internal">
        <lane id=":14_4_0" index="0" speed="13.89" length="29.47" shape="611.20,1285.70 610.20,1294.94 608.00,1301.75 605.80,1307.67 604.80,1314.30"/>
        <lane id=":14_4_1" index="1" speed="13.89" length="29.47" shape="608.00,1285.70 607.00,1294.94 604.80,1301.75 602.60,1307.67 601.60,1314.30"/>
    </edge>
    <edge id=":14_6" function="internal">
        <lane id=":14_6_0" index="0" speed="13.89" length="25.41" shape="604.80,1285.70 603.61,1295.46 600.03,1302.42 594.06,1306.61 593.60,1306.68"/>
    </edge>
    <edge id=":14_7" function="internal">
        <lane id=":14_7_0" index="0" speed="13.89" length="11.14" shape="601.60,1285.70 599.20,1289.30 596.80,1290.50 594.40,1289.30 593.60,1288.10"/>
    </edge>
    <edge id=":14_14" function="internal">
        <lane id=":14_14_0" index="0" speed="13.89" length="8.01" shape="593.60,1306.68 585.70,1308.00"/>
    </edge>
    <edge id=":14_15" function="internal">
        <lane id=":14_15_0" index="0" speed="13.89" length="2.88" shape="593.60,1288.10 592.00,1285.70"/>
    </edge>
    <edge id=":14_8" function="internal">
        <lane id=":14_8_0" index="0" speed="13.89" length="5.00" shape="585.70,1288.80 587.06,1288.61 588.03,1288.02 588.61,1287.06 588.80,1285.70"/>
    </edge>
    <edge id=":14_9" function="internal">
        <lane id=":14_9_0" index="0" speed="13.89" length="10.16" shape="585.70,1292.00 588.46,1291.61 590.43,1290.42 591.61,1288.46 592.00,1285.70"/>
    </edge>
    <edge id=":14_10" function="internal">
        <lane id=":14_10_0" index="0" speed="13.89" length="30.80" shape="585.70,1295.20 594.06,1296.39 600.03,1299.98 603.61,1305.94 604.80,1314.30"/>
    </edge>
    <edge id=":14_11" function="internal">
        <lane id=":14_11_0" index="0" speed="13.89" length="25.64" shape="585.70,1298.40 592.66,1299.39 597.63,1302.38 600.61,1307.34 601.60,1314.30"/>
    </edge>
    <edge id=":14_12" function="internal">
        <lane id=":14_12_0" index="0" speed="13.89" length="14.02" shape="585.70,1298.40 589.30,1300.80 590.50,1303.20 589.30,1305.60 585.70,1308.00"/>
    </edge>
    <edge id=":15.250.00_0" function="internal">
        <lane id=":15.250.00_0_0" index="0" speed="13.89" length="4.36" shape="611.20,1248.50 611.20,1251.50"/>
        <lane id=":15.250.00_0_1" index="1" speed="13.89" length="4.36" shape="608.00,1248.50 608.00,1251.50"/>
        <lane id=":15.250.00_0_2" index="2" speed="13.89" length="4.36" shape="608.00,1248.50 604.80,1251.50"/>
        <lane id=":15.250.00_0_3" index="3" speed="13.89" length="4.36" shape="608.00,1248.50 601.60,1251.50"/>
    </edge>
    <edge id=":2_0" function="internal">
        <lane id=":2_0_0" index="0" speed="13.89" length="5.99" shape="588.80,725.42 588.57,723.61 587.87,722.67 586.70,722.61 585.06,723.42"/>
    </edge>
    <edge id=":2_1" function="internal">
        <lane id=":2_1_0" index="0" speed="13.89" length="39.72" shape="588.80,725.42 588.80,685.70"/>
        <lane id=":2_1_1" index="1" speed="13.89" length="39.72" shape="592.00,725.42 592.00,685.70"/>
    </edge>
    <edge id=":2_3" function="internal">
        <lane id=":2_3_0" index="0" speed="13.89" length="34.83" shape="595.20,725.42 596.39,710.80 599.98,700.35 605.94,694.09 606.40,693.97"/>
    </edge>
    <edge id=":2_4" function="internal">
        <lane id=":2_4_0" index="0" speed="13.89" length="11.14" shape="598.40,725.42 600.80,721.82 603.20,720.62 605.60,721.82 606.40,723.02"/>
    </edge>
    <edge id=":2_24" function="internal">
        <lane id=":2_24_0" index="0" speed="13.89" length="8.14" shape="606.40,693.97 614.30,692.00"/>
    </edge>
    <edge id=":2_25" function="internal">
        <lane id=":2_25_0" index="0" speed="13.89" length="2.88" shape="606.40,723.02 608.00,725.42"/>
    </edge>
    <edge id=":2_5" function="internal">
        <lane id=":2_5_0" index="0" speed="13.89" length="15.16" shape="614.30,711.20 612.94,712.09 611.98,714.75 611.39,719.20 611.20,725.42"/>
    </edge>
    <edge id=":2_6" function="internal">