<?xml version="1.0" encoding="UTF-8"?>

<!-- generated on 14.09.2018 15:22:46 by Eclipse SUMO netedit Version UNKNOWN
<configuration xmlns:xsi="http://www.w3.org/2001/XMLSchema-instance" xsi:noNamespaceSchemaLocation="http://sumo.dlr.de/xsd/netconvertConfiguration.xsd">

    <input>
        <sumo-net-file value="C:/Users/SUMO-Test/.texttest/tmp/netedit.gui.1_from_14Sep150304.3512/netedit.gui/additionalElements/e3detector/load/load_timethreshold\input_net.net.xml"/>
    </input>

    <output>
        <output-file value="C:/Users/SUMO-Test/.texttest/tmp/netedit.gui.1_from_14Sep150304.3512/netedit.gui/additionalElements/e3detector/load/load_timethreshold\net.net.xml"/>
    </output>

    <processing>
        <offset.disable-normalization value="true"/>
        <lefthand value="false"/>
    </processing>

    <junctions>
        <no-turnarounds value="true"/>
        <junctions.corner-detail value="5"/>
        <junctions.limit-turn-speed value="5.5"/>
        <rectangular-lane-cut value="false"/>
    </junctions>

    <pedestrian>
        <walkingareas value="false"/>
    </pedestrian>

    <netedit>
        <sumo-additionals-file value="C:/Users/SUMO-Test/.texttest/tmp/netedit.gui.1_from_14Sep150304.3512/netedit.gui/additionalElements/e3detector/load/load_timethreshold\input_additionals.add.xml"/>
        <additionals-output value="C:/Users/SUMO-Test/.texttest/tmp/netedit.gui.1_from_14Sep150304.3512/netedit.gui/additionalElements/e3detector/load/load_timethreshold\additionals.xml"/>
        <shapes-output value="C:/Users/SUMO-Test/.texttest/tmp/netedit.gui.1_from_14Sep150304.3512/netedit.gui/additionalElements/e3detector/load/load_timethreshold\shapes.xml"/>
    </netedit>

    <visualisation>
        <gui-settings-file value="C:/Users/SUMO-Test/.texttest/tmp/netedit.gui.1_from_14Sep150304.3512/netedit.gui/additionalElements/e3detector/load/load_timethreshold\gui-settings.xml"/>
        <window-size value="700,500"/>
        <window-pos value="50,50"/>
        <gui-testing value="true"/>
        <gui-testing-debug value="true"/>
        <gui-testing-debug-gl value="true"/>
    </visualisation>

    <report>
        <no-warnings value="true"/>
        <error-log value="C:/Users/SUMO-Test/.texttest/tmp/netedit.gui.1_from_14Sep150304.3512/netedit.gui/additionalElements/e3detector/load/load_timethreshold\log.txt"/>
    </report>

</configuration>
-->

<additional xmlns:xsi="http://www.w3.org/2001/XMLSchema-instance" xsi:noNamespaceSchemaLocation="http://sumo.dlr.de/xsd/additional_file.xsd">
    <e3Detector id="e3Detector_0" pos="18.00,10.00" freq="100.00" file="e3Detector_0.txt">
        <detEntry lane="gneE1_0" pos="24.00"/>
        <detExit lane="gneE0_0" pos="24.00"/>
    </e3Detector>
    <e3Detector id="e3Detector_1" pos="20.00,10.00" freq="100.00" file="e3Detector_1.txt">
        <detEntry lane="gneE1_0" pos="26.00"/>
        <detExit lane="gneE0_0" pos="26.00"/>
    </e3Detector>
    <e3Detector id="e3Detector_2" pos="22.00,10.00" freq="100.00" file="e3Detector_2.txt">
        <detEntry lane="gneE1_0" pos="28.00"/>
        <detExit lane="gneE0_0" pos="28.00"/>
    </e3Detector>
    <e3Detector id="e3Detector_3" pos="24.00,10.00" freq="100.00" file="e3Detector_3.txt" timeThreshold="2.12">
        <detEntry lane="gneE1_0" pos="30.00"/>
        <detExit lane="gneE0_0" pos="30.00"/>
    </e3Detector>
</additional>
