<?xml version="1.0" encoding="UTF-8"?>

<!-- generated on 2024-12-09 17:54:12 by Eclipse SUMO sumo Version v1_14_1+16408-fdfc1fa69b3
This data file and the accompanying materials
are made available under the terms of the Eclipse Public License v2.0
which accompanies this distribution, and is available at
http://www.eclipse.org/legal/epl-v20.html
This file may also be made available under the following Secondary
Licenses when the conditions for such availability set forth in the Eclipse
Public License 2.0 are satisfied: GNU General Public License, version 2
or later which is available at
https://www.gnu.org/licenses/old-licenses/gpl-2.0-standalone.html
SPDX-License-Identifier: EPL-2.0 OR GPL-2.0-or-later
<sumoConfiguration xmlns:xsi="http://www.w3.org/2001/XMLSchema-instance" xsi:noNamespaceSchemaLocation="http://sumo.dlr.de/xsd/sumoConfiguration.xsd">

    <input>
        <net-file value="net.net.xml"/>
        <route-files value="input_routes.rou.xml"/>
        <additional-files value="input_additional.add.xml"/>
    </input>

    <output>
        <write-license value="true"/>
        <battery-output value="battery.xml"/>
        <battery-output.precision value="4"/>
        <chargingstations-output value="chargingstations.xml"/>
        <tripinfo-output value="tripinfos.xml"/>
    </output>

    <processing>
        <default.speeddev value="0"/>
    </processing>

    <report>
        <xml-validation value="never"/>
        <duration-log.disable value="true"/>
        <no-step-log value="true"/>
    </report>

    <battery>
        <device.stationfinder.probability value="1"/>
        <device.stationfinder.emptyThreshold value="0"/>
        <device.battery.track-fuel value="true"/>
    </battery>

</sumoConfiguration>
-->

<chargingstations-export>
    <chargingStation id="CS1" totalEnergyCharged="0.00" chargingSteps="0"/>
    <chargingStation id="CS2" totalEnergyCharged="287.37" chargingSteps="99">
        <vehicle id="veh0" type="ElectricVehicle" totalEnergyChargedIntoVehicle="287.37" chargingBegin="17.00" chargingEnd="115.00">
            <step time="17.00" chargingStatus="chargingStopped" energyCharged="2.90" partialCharge="2.90" power="11000.00" efficiency="0.95" actualBatteryCapacity="138.29" maximumBatteryCapacity="35000.00"/>
            <step time="18.00" chargingStatus="chargingStopped" energyCharged="2.90" partialCharge="5.81" power="11000.00" efficiency="0.95" actualBatteryCapacity="141.18" maximumBatteryCapacity="35000.00"/>
            <step time="19.00" chargingStatus="chargingStopped" energyCharged="2.90" partialCharge="8.71" power="11000.00" efficiency="0.95" actualBatteryCapacity="144.07" maximumBatteryCapacity="35000.00"/>
            <step time="20.00" chargingStatus="chargingStopped" energyCharged="2.90" partialCharge="11.61" power="11000.00" efficiency="0.95" actualBatteryCapacity="146.96" maximumBatteryCapacity="35000.00"/>
            <step time="21.00" chargingStatus="chargingStopped" energyCharged="2.90" partialCharge="14.51" power="11000.00" efficiency="0.95" actualBatteryCapacity="149.85" maximumBatteryCapacity="35000.00"/>
            <step time="22.00" chargingStatus="chargingStopped" energyCharged="2.90" partialCharge="17.42" power="11000.00" efficiency="0.95" actualBatteryCapacity="152.74" maximumBatteryCapacity="35000.00"/>
            <step time="23.00" chargingStatus="chargingStopped" energyCharged="2.90" partialCharge="20.32" power="11000.00" efficiency="0.95" actualBatteryCapacity="155.63" maximumBatteryCapacity="35000.00"/>
            <step time="24.00" chargingStatus="chargingStopped" energyCharged="2.90" partialCharge="23.22" power="11000.00" efficiency="0.95" actualBatteryCapacity="158.52" maximumBatteryCapacity="35000.00"/>
            <step time="25.00" chargingStatus="chargingStopped" energyCharged="2.90" partialCharge="26.12" power="11000.00" efficiency="0.95" actualBatteryCapacity="161.41" maximumBatteryCapacity="35000.00"/>
            <step time="26.00" chargingStatus="chargingStopped" energyCharged="2.90" partialCharge="29.03" power="11000.00" efficiency="0.95" actualBatteryCapacity="164.30" maximumBatteryCapacity="35000.00"/>
            <step time="27.00" chargingStatus="chargingStopped" energyCharged="2.90" partialCharge="31.93" power="11000.00" efficiency="0.95" actualBatteryCapacity="167.19" maximumBatteryCapacity="35000.00"/>
            <step time="28.00" chargingStatus="chargingStopped" energyCharged="2.90" partialCharge="34.83" power="11000.00" efficiency="0.95" actualBatteryCapacity="170.08" maximumBatteryCapacity="35000.00"/>
            <step time="29.00" chargingStatus="chargingStopped" energyCharged="2.90" partialCharge="37.74" power="11000.00" efficiency="0.95" actualBatteryCapacity="172.97" maximumBatteryCapacity="35000.00"/>
            <step time="30.00" chargingStatus="chargingStopped" energyCharged="2.90" partialCharge="40.64" power="11000.00" efficiency="0.95" actualBatteryCapacity="175.86" maximumBatteryCapacity="35000.00"/>
            <step time="31.00" chargingStatus="chargingStopped" energyCharged="2.90" partialCharge="43.54" power="11000.00" efficiency="0.95" actualBatteryCapacity="178.75" maximumBatteryCapacity="35000.00"/>
            <step time="32.00" chargingStatus="chargingStopped" energyCharged="2.90" partialCharge="46.44" power="11000.00" efficiency="0.95" actualBatteryCapacity="181.64" maximumBatteryCapacity="35000.00"/>
            <step time="33.00" chargingStatus="chargingStopped" energyCharged="2.90" partialCharge="49.35" power="11000.00" efficiency="0.95" actualBatteryCapacity="184.53" maximumBatteryCapacity="35000.00"/>
            <step time="34.00" chargingStatus="chargingStopped" energyCharged="2.90" partialCharge="52.25" power="11000.00" efficiency="0.95" actualBatteryCapacity="187.42" maximumBatteryCapacity="35000.00"/>
            <step time="35.00" chargingStatus="chargingStopped" energyCharged="2.90" partialCharge="55.15" power="11000.00" efficiency="0.95" actualBatteryCapacity="190.32" maximumBatteryCapacity="35000.00"/>
            <step time="36.00" chargingStatus="chargingStopped" energyCharged="2.90" partialCharge="58.06" power="11000.00" efficiency="0.95" actualBatteryCapacity="193.21" maximumBatteryCapacity="35000.00"/>
            <step time="37.00" chargingStatus="chargingStopped" energyCharged="2.90" partialCharge="60.96" power="11000.00" efficiency="0.95" actualBatteryCapacity="196.10" maximumBatteryCapacity="35000.00"/>
            <step time="38.00" chargingStatus="chargingStopped" energyCharged="2.90" partialCharge="63.86" power="11000.00" efficiency="0.95" actualBatteryCapacity="198.99" maximumBatteryCapacity="35000.00"/>
            <step time="39.00" chargingStatus="chargingStopped" energyCharged="2.90" partialCharge="66.76" power="11000.00" efficiency="0.95" actualBatteryCapacity="201.88" maximumBatteryCapacity="35000.00"/>
            <step time="40.00" chargingStatus="chargingStopped" energyCharged="2.90" partialCharge="69.67" power="11000.00" efficiency="0.95" actualBatteryCapacity="204.77" maximumBatteryCapacity="35000.00"/>
            <step time="41.00" chargingStatus="chargingStopped" energyCharged="2.90" partialCharge="72.57" power="11000.00" efficiency="0.95" actualBatteryCapacity="207.66" maximumBatteryCapacity="35000.00"/>
            <step time="42.00" chargingStatus="chargingStopped" energyCharged="2.90" partialCharge="75.47" power="11000.00" efficiency="0.95" actualBatteryCapacity="210.55" maximumBatteryCapacity="35000.00"/>
            <step time="43.00" chargingStatus="chargingStopped" energyCharged="2.90" partialCharge="78.37" power="11000.00" efficiency="0.95" actualBatteryCapacity="213.44" maximumBatteryCapacity="35000.00"/>
            <step time="44.00" chargingStatus="chargingStopped" energyCharged="2.90" partialCharge="81.28" power="11000.00" efficiency="0.95" actualBatteryCapacity="216.33" maximumBatteryCapacity="35000.00"/>
            <step time="45.00" chargingStatus="chargingStopped" energyCharged="2.90" partialCharge="84.18" power="11000.00" efficiency="0.95" actualBatteryCapacity="219.22" maximumBatteryCapacity="35000.00"/>
            <step time="46.00" chargingStatus="chargingStopped" energyCharged="2.90" partialCharge="87.08" power="11000.00" efficiency="0.95" actualBatteryCapacity="222.11" maximumBatteryCapacity="35000.00"/>
            <step time="47.00" chargingStatus="chargingStopped" energyCharged="2.90" partialCharge="89.99" power="11000.00" efficiency="0.95" actualBatteryCapacity="225.00" maximumBatteryCapacity="35000.00"/>
            <step time="48.00" chargingStatus="chargingStopped" energyCharged="2.90" partialCharge="92.89" power="11000.00" efficiency="0.95" actualBatteryCapacity="227.89" maximumBatteryCapacity="35000.00"/>
            <step time="49.00" chargingStatus="chargingStopped" energyCharged="2.90" partialCharge="95.79" power="11000.00" efficiency="0.95" actualBatteryCapacity="230.78" maximumBatteryCapacity="35000.00"/>
            <step time="50.00" chargingStatus="chargingStopped" energyCharged="2.90" partialCharge="98.69" power="11000.00" efficiency="0.95" actualBatteryCapacity="233.67" maximumBatteryCapacity="35000.00"/>
            <step time="51.00" chargingStatus="chargingStopped" energyCharged="2.90" partialCharge="101.60" power="11000.00" efficiency="0.95" actualBatteryCapacity="236.56" maximumBatteryCapacity="35000.00"/>
            <step time="52.00" chargingStatus="chargingStopped" energyCharged="2.90" partialCharge="104.50" power="11000.00" efficiency="0.95" actualBatteryCapacity="239.45" maximumBatteryCapacity="35000.00"/>
            <step time="53.00" chargingStatus="chargingStopped" energyCharged="2.90" partialCharge="107.40" power="11000.00" efficiency="0.95" actualBatteryCapacity="242.34" maximumBatteryCapacity="35000.00"/>
            <step time="54.00" chargingStatus="chargingStopped" energyCharged="2.90" partialCharge="110.31" power="11000.00" efficiency="0.95" actualBatteryCapacity="245.23" maximumBatteryCapacity="35000.00"/>
            <step time="55.00" chargingStatus="chargingStopped" energyCharged="2.90" partialCharge="113.21" power="11000.00" efficiency="0.95" actualBatteryCapacity="248.12" maximumBatteryCapacity="35000.00"/>
            <step time="56.00" chargingStatus="chargingStopped" energyCharged="2.90" partialCharge="116.11" power="11000.00" efficiency="0.95" actualBatteryCapacity="251.01" maximumBatteryCapacity="35000.00"/>
            <step time="57.00" chargingStatus="chargingStopped" energyCharged="2.90" partialCharge="119.01" power="11000.00" efficiency="0.95" actualBatteryCapacity="253.90" maximumBatteryCapacity="35000.00"/>
            <step time="58.00" chargingStatus="chargingStopped" energyCharged="2.90" partialCharge="121.92" power="11000.00" efficiency="0.95" actualBatteryCapacity="256.80" maximumBatteryCapacity="35000.00"/>
            <step time="59.00" chargingStatus="chargingStopped" energyCharged="2.90" partialCharge="124.82" power="11000.00" efficiency="0.95" actualBatteryCapacity="259.69" maximumBatteryCapacity="35000.00"/>
            <step time="60.00" chargingStatus="chargingStopped" energyCharged="2.90" partialCharge="127.72" power="11000.00" efficiency="0.95" actualBatteryCapacity="262.58" maximumBatteryCapacity="35000.00"/>
            <step time="61.00" chargingStatus="chargingStopped" energyCharged="2.90" partialCharge="130.62" power="11000.00" efficiency="0.95" actualBatteryCapacity="265.47" maximumBatteryCapacity="35000.00"/>
            <step time="62.00" chargingStatus="chargingStopped" energyCharged="2.90" partialCharge="133.53" power="11000.00" efficiency="0.95" actualBatteryCapacity="268.36" maximumBatteryCapacity="35000.00"/>
            <step time="63.00" chargingStatus="chargingStopped" energyCharged="2.90" partialCharge="136.43" power="11000.00" efficiency="0.95" actualBatteryCapacity="271.25" maximumBatteryCapacity="35000.00"/>
            <step time="64.00" chargingStatus="chargingStopped" energyCharged="2.90" partialCharge="139.33" power="11000.00" efficiency="0.95" actualBatteryCapacity="274.14" maximumBatteryCapacity="35000.00"/>
            <step time="65.00" chargingStatus="chargingStopped" energyCharged="2.90" partialCharge="142.24" power="11000.00" efficiency="0.95" actualBatteryCapacity="277.03" maximumBatteryCapacity="35000.00"/>
            <step time="66.00" chargingStatus="chargingStopped" energyCharged="2.90" partialCharge="145.14" power="11000.00" efficiency="0.95" actualBatteryCapacity="279.92" maximumBatteryCapacity="35000.00"/>
            <step time="67.00" chargingStatus="chargingStopped" energyCharged="2.90" partialCharge="148.04" power="11000.00" efficiency="0.95" actualBatteryCapacity="282.81" maximumBatteryCapacity="35000.00"/>
            <step time="68.00" chargingStatus="chargingStopped" energyCharged="2.90" partialCharge="150.94" power="11000.00" efficiency="0.95" actualBatteryCapacity="285.70" maximumBatteryCapacity="35000.00"/>
            <step time="69.00" chargingStatus="chargingStopped" energyCharged="2.90" partialCharge="153.85" power="11000.00" efficiency="0.95" actualBatteryCapacity="288.59" maximumBatteryCapacity="35000.00"/>
            <step time="70.00" chargingStatus="chargingStopped" energyCharged="2.90" partialCharge="156.75" power="11000.00" efficiency="0.95" actualBatteryCapacity="291.48" maximumBatteryCapacity="35000.00"/>
            <step time="71.00" chargingStatus="chargingStopped" energyCharged="2.90" partialCharge="159.65" power="11000.00" efficiency="0.95" actualBatteryCapacity="294.37" maximumBatteryCapacity="35000.00"/>
            <step time="72.00" chargingStatus="chargingStopped" energyCharged="2.90" partialCharge="162.56" power="11000.00" efficiency="0.95" actualBatteryCapacity="297.26" maximumBatteryCapacity="35000.00"/>
            <step time="73.00" chargingStatus="chargingStopped" energyCharged="2.90" partialCharge="165.46" power="11000.00" efficiency="0.95" actualBatteryCapacity="300.15" maximumBatteryCapacity="35000.00"/>
            <step time="74.00" chargingStatus="chargingStopped" energyCharged="2.90" partialCharge="168.36" power="11000.00" efficiency="0.95" actualBatteryCapacity="303.04" maximumBatteryCapacity="35000.00"/>
            <step time="75.00" chargingStatus="chargingStopped" energyCharged="2.90" partialCharge="171.26" power="11000.00" efficiency="0.95" actualBatteryCapacity="305.93" maximumBatteryCapacity="35000.00"/>
            <step time="76.00" chargingStatus="chargingStopped" energyCharged="2.90" partialCharge="174.17" power="11000.00" efficiency="0.95" actualBatteryCapacity="308.82" maximumBatteryCapacity="35000.00"/>
            <step time="77.00" chargingStatus="chargingStopped" energyCharged="2.90" partialCharge="177.07" power="11000.00" efficiency="0.95" actualBatteryCapacity="311.71" maximumBatteryCapacity="35000.00"/>
            <step time="78.00" chargingStatus="chargingStopped" energyCharged="2.90" partialCharge="179.97" power="11000.00" efficiency="0.95" actualBatteryCapacity="314.60" maximumBatteryCapacity="35000.00"/>
            <step time="79.00" chargingStatus="chargingStopped" energyCharged="2.90" partialCharge="182.87" power="11000.00" efficiency="0.95" actualBatteryCapacity="317.49" maximumBatteryCapacity="35000.00"/>
            <step time="80.00" chargingStatus="chargingStopped" energyCharged="2.90" partialCharge="185.78" power="11000.00" efficiency="0.95" actualBatteryCapacity="320.38" maximumBatteryCapacity="35000.00"/>
            <step time="81.00" chargingStatus="chargingStopped" energyCharged="2.90" partialCharge="188.68" power="11000.00" efficiency="0.95" actualBatteryCapacity="323.27" maximumBatteryCapacity="35000.00"/>
            <step time="82.00" chargingStatus="chargingStopped" energyCharged="2.90" partialCharge="191.58" power="11000.00" efficiency="0.95" actualBatteryCapacity="326.17" maximumBatteryCapacity="35000.00"/>
            <step time="83.00" chargingStatus="chargingStopped" energyCharged="2.90" partialCharge="194.49" power="11000.00" efficiency="0.95" actualBatteryCapacity="329.06" maximumBatteryCapacity="35000.00"/>
            <step time="84.00" chargingStatus="chargingStopped" energyCharged="2.90" partialCharge="197.39" power="11000.00" efficiency="0.95" actualBatteryCapacity="331.95" maximumBatteryCapacity="35000.00"/>
            <step time="85.00" chargingStatus="chargingStopped" energyCharged="2.90" partialCharge="200.29" power="11000.00" efficiency="0.95" actualBatteryCapacity="334.84" maximumBatteryCapacity="35000.00"/>
            <step time="86.00" chargingStatus="chargingStopped" energyCharged="2.90" partialCharge="203.19" power="11000.00" efficiency="0.95" actualBatteryCapacity="337.73" maximumBatteryCapacity="35000.00"/>
            <step time="87.00" chargingStatus="chargingStopped" energyCharged="2.90" partialCharge="206.10" power="11000.00" efficiency="0.95" actualBatteryCapacity="340.62" maximumBatteryCapacity="35000.00"/>
            <step time="88.00" chargingStatus="chargingStopped" energyCharged="2.90" partialCharge="209.00" power="11000.00" efficiency="0.95" actualBatteryCapacity="343.51" maximumBatteryCapacity="35000.00"/>
            <step time="89.00" chargingStatus="chargingStopped" energyCharged="2.90" partialCharge="211.90" power="11000.00" efficiency="0.95" actualBatteryCapacity="346.40" maximumBatteryCapacity="35000.00"/>
            <step time="90.00" chargingStatus="chargingStopped" energyCharged="2.90" partialCharge="214.81" power="11000.00" efficiency="0.95" actualBatteryCapacity="349.29" maximumBatteryCapacity="35000.00"/>
            <step time="91.00" chargingStatus="chargingStopped" energyCharged="2.90" partialCharge="217.71" power="11000.00" efficiency="0.95" actualBatteryCapacity="352.18" maximumBatteryCapacity="35000.00"/>
            <step time="92.00" chargingStatus="chargingStopped" energyCharged="2.90" partialCharge="220.61" power="11000.00" efficiency="0.95" actualBatteryCapacity="355.07" maximumBatteryCapacity="35000.00"/>
            <step time="93.00" chargingStatus="chargingStopped" energyCharged="2.90" partialCharge="223.51" power="11000.00" efficiency="0.95" actualBatteryCapacity="357.96" maximumBatteryCapacity="35000.00"/>
            <step time="94.00" chargingStatus="chargingStopped" energyCharged="2.90" partialCharge="226.42" power="11000.00" efficiency="0.95" actualBatteryCapacity="360.85" maximumBatteryCapacity="35000.00"/>
            <step time="95.00" chargingStatus="chargingStopped" energyCharged="2.90" partialCharge="229.32" power="11000.00" efficiency="0.95" actualBatteryCapacity="363.74" maximumBatteryCapacity="35000.00"/>
            <step time="96.00" chargingStatus="chargingStopped" energyCharged="2.90" partialCharge="232.22" power="11000.00" efficiency="0.95" actualBatteryCapacity="366.63" maximumBatteryCapacity="35000.00"/>
            <step time="97.00" chargingStatus="chargingStopped" energyCharged="2.90" partialCharge="235.12" power="11000.00" efficiency="0.95" actualBatteryCapacity="369.52" maximumBatteryCapacity="35000.00"/>
            <step time="98.00" chargingStatus="chargingStopped" energyCharged="2.90" partialCharge="238.03" power="11000.00" efficiency="0.95" actualBatteryCapacity="372.41" maximumBatteryCapacity="35000.00"/>
            <step time="99.00" chargingStatus="chargingStopped" energyCharged="2.90" partialCharge="240.93" power="11000.00" efficiency="0.95" actualBatteryCapacity="375.30" maximumBatteryCapacity="35000.00"/>
            <step time="100.00" chargingStatus="chargingStopped" energyCharged="2.90" partialCharge="243.83" power="11000.00" efficiency="0.95" actualBatteryCapacity="378.19" maximumBatteryCapacity="35000.00"/>
            <step time="101.00" chargingStatus="chargingStopped" energyCharged="2.90" partialCharge="246.74" power="11000.00" efficiency="0.95" actualBatteryCapacity="381.08" maximumBatteryCapacity="35000.00"/>
            <step time="102.00" chargingStatus="chargingStopped" energyCharged="2.90" partialCharge="249.64" power="11000.00" efficiency="0.95" actualBatteryCapacity="383.97" maximumBatteryCapacity="35000.00"/>
            <step time="103.00" chargingStatus="chargingStopped" energyCharged="2.90" partialCharge="252.54" power="11000.00" efficiency="0.95" actualBatteryCapacity="386.86" maximumBatteryCapacity="35000.00"/>
            <step time="104.00" chargingStatus="chargingStopped" energyCharged="2.90" partialCharge="255.44" power="11000.00" efficiency="0.95" actualBatteryCapacity="389.75" maximumBatteryCapacity="35000.00"/>
            <step time="105.00" chargingStatus="chargingStopped" energyCharged="2.90" partialCharge="258.35" power="11000.00" efficiency="0.95" actualBatteryCapacity="392.65" maximumBatteryCapacity="35000.00"/>
            <step time="106.00" chargingStatus="chargingStopped" energyCharged="2.90" partialCharge="261.25" power="11000.00" efficiency="0.95" actualBatteryCapacity="395.54" maximumBatteryCapacity="35000.00"/>
            <step time="107.00" chargingStatus="chargingStopped" energyCharged="2.90" partialCharge="264.15" power="11000.00" efficiency="0.95" actualBatteryCapacity="398.43" maximumBatteryCapacity="35000.00"/>
            <step time="108.00" chargingStatus="chargingStopped" energyCharged="2.90" partialCharge="267.06" power="11000.00" efficiency="0.95" actualBatteryCapacity="401.32" maximumBatteryCapacity="35000.00"/>
            <step time="109.00" chargingStatus="chargingStopped" energyCharged="2.90" partialCharge="269.96" power="11000.00" efficiency="0.95" actualBatteryCapacity="404.21" maximumBatteryCapacity="35000.00"/>
            <step time="110.00" chargingStatus="chargingStopped" energyCharged="2.90" partialCharge="272.86" power="11000.00" efficiency="0.95" actualBatteryCapacity="407.10" maximumBatteryCapacity="35000.00"/>
            <step time="111.00" chargingStatus="chargingStopped" energyCharged="2.90" partialCharge="275.76" power="11000.00" efficiency="0.95" actualBatteryCapacity="409.99" maximumBatteryCapacity="35000.00"/>
            <step time="112.00" chargingStatus="chargingStopped" energyCharged="2.90" partialCharge="278.67" power="11000.00" efficiency="0.95" actualBatteryCapacity="412.88" maximumBatteryCapacity="35000.00"/>
            <step time="113.00" chargingStatus="chargingStopped" energyCharged="2.90" partialCharge="281.57" power="11000.00" efficiency="0.95" actualBatteryCapacity="415.77" maximumBatteryCapacity="35000.00"/>
            <step time="114.00" chargingStatus="chargingStopped" energyCharged="2.90" partialCharge="284.47" power="11000.00" efficiency="0.95" actualBatteryCapacity="418.66" maximumBatteryCapacity="35000.00"/>
            <step time="115.00" chargingStatus="chargingStopped" energyCharged="2.90" partialCharge="287.37" power="11000.00" efficiency="0.95" actualBatteryCapacity="421.55" maximumBatteryCapacity="35000.00"/>
        </vehicle>
    </chargingStation>
    <chargingStation id="CS3" totalEnergyCharged="896744.87" chargingSteps="368">
        <vehicle id="veh1" type="FuelVehicle" totalEnergyChargedIntoVehicle="896744.87" chargingBegin="24.00" chargingEnd="391.00">
            <step time="24.00" chargingStatus="waitingChargeStopped" energyCharged="0.00" partialCharge="0.00" power="2200000.00" efficiency="0.95" actualBatteryCapacity="3255.13" maximumBatteryCapacity="900000.00"/>
            <step time="25.00" chargingStatus="waitingChargeStopped" energyCharged="0.00" partialCharge="0.00" power="2200000.00" efficiency="0.95" actualBatteryCapacity="3255.13" maximumBatteryCapacity="900000.00"/>
            <step time="26.00" chargingStatus="waitingChargeStopped" energyCharged="0.00" partialCharge="0.00" power="2200000.00" efficiency="0.95" actualBatteryCapacity="3255.13" maximumBatteryCapacity="900000.00"/>
            <step time="27.00" chargingStatus="chargingStopped" energyCharged="150000.00" partialCharge="150000.00" power="2200000.00" efficiency="0.95" actualBatteryCapacity="153255.13" maximumBatteryCapacity="900000.00"/>
            <step time="28.00" chargingStatus="chargingStopped" energyCharged="150000.00" partialCharge="300000.00" power="2200000.00" efficiency="0.95" actualBatteryCapacity="303255.13" maximumBatteryCapacity="900000.00"/>
            <step time="29.00" chargingStatus="chargingStopped" energyCharged="150000.00" partialCharge="450000.00" power="2200000.00" efficiency="0.95" actualBatteryCapacity="453255.13" maximumBatteryCapacity="900000.00"/>
            <step time="30.00" chargingStatus="chargingStopped" energyCharged="150000.00" partialCharge="600000.00" power="2200000.00" efficiency="0.95" actualBatteryCapacity="603255.13" maximumBatteryCapacity="900000.00"/>
            <step time="31.00" chargingStatus="chargingStopped" energyCharged="150000.00" partialCharge="750000.00" power="2200000.00" efficiency="0.95" actualBatteryCapacity="753255.13" maximumBatteryCapacity="900000.00"/>
            <step time="32.00" chargingStatus="chargingStopped" energyCharged="146744.87" partialCharge="896744.87" power="2200000.00" efficiency="0.95" actualBatteryCapacity="900000.00" maximumBatteryCapacity="900000.00"/>
            <step time="33.00" chargingStatus="chargingStopped" energyCharged="0.00" partialCharge="896744.87" power="2200000.00" efficiency="0.95" actualBatteryCapacity="900000.00" maximumBatteryCapacity="900000.00"/>
            <step time="34.00" chargingStatus="chargingStopped" energyCharged="0.00" partialCharge="896744.87" power="2200000.00" efficiency="0.95" actualBatteryCapacity="900000.00" maximumBatteryCapacity="900000.00"/>
            <step time="35.00" chargingStatus="chargingStopped" energyCharged="0.00" partialCharge="896744.87" power="2200000.00" efficiency="0.95" actualBatteryCapacity="900000.00" maximumBatteryCapacity="900000.00"/>
            <step time="36.00" chargingStatus="chargingStopped" energyCharged="0.00" partialCharge="896744.87" power="2200000.00" efficiency="0.95" actualBatteryCapacity="900000.00" maximumBatteryCapacity="900000.00"/>
            <step time="37.00" chargingStatus="chargingStopped" energyCharged="0.00" partialCharge="896744.87" power="2200000.00" efficiency="0.95" actualBatteryCapacity="900000.00" maximumBatteryCapacity="900000.00"/>
            <step time="38.00" chargingStatus="chargingStopped" energyCharged="0.00" partialCharge="896744.87" power="2200000.00" efficiency="0.95" actualBatteryCapacity="900000.00" maximumBatteryCapacity="900000.00"/>
            <step time="39.00" chargingStatus="chargingStopped" energyCharged="0.00" partialCharge="896744.87" power="2200000.00" efficiency="0.95" actualBatteryCapacity="900000.00" maximumBatteryCapacity="900000.00"/>
            <step time="40.00" chargingStatus="chargingStopped" energyCharged="0.00" partialCharge="896744.87" power="2200000.00" efficiency="0.95" actualBatteryCapacity="900000.00" maximumBatteryCapacity="900000.00"/>
            <step time="41.00" chargingStatus="chargingStopped" energyCharged="0.00" partialCharge="896744.87" power="2200000.00" efficiency="0.95" actualBatteryCapacity="900000.00" maximumBatteryCapacity="900000.00"/>
            <step time="42.00" chargingStatus="chargingStopped" energyCharged="0.00" partialCharge="896744.87" power="2200000.00" efficiency="0.95" actualBatteryCapacity="900000.00" maximumBatteryCapacity="900000.00"/>
            <step time="43.00" chargingStatus="chargingStopped" energyCharged="0.00" partialCharge="896744.87" power="2200000.00" efficiency="0.95" actualBatteryCapacity="900000.00" maximumBatteryCapacity="900000.00"/>
            <step time="44.00" chargingStatus="chargingStopped" energyCharged="0.00" partialCharge="896744.87" power="2200000.00" efficiency="0.95" actualBatteryCapacity="900000.00" maximumBatteryCapacity="900000.00"/>
            <step time="45.00" chargingStatus="chargingStopped" energyCharged="0.00" partialCharge="896744.87" power="2200000.00" efficiency="0.95" actualBatteryCapacity="900000.00" maximumBatteryCapacity="900000.00"/>
            <step time="46.00" chargingStatus="chargingStopped" energyCharged="0.00" partialCharge="896744.87" power="2200000.00" efficiency="0.95" actualBatteryCapacity="900000.00" maximumBatteryCapacity="900000.00"/>
            <step time="47.00" chargingStatus="chargingStopped" energyCharged="0.00" partialCharge="896744.87" power="2200000.00" efficiency="0.95" actualBatteryCapacity="900000.00" maximumBatteryCapacity="900000.00"/>
            <step time="48.00" chargingStatus="chargingStopped" energyCharged="0.00" partialCharge="896744.87" power="2200000.00" efficiency="0.95" actualBatteryCapacity="900000.00" maximumBatteryCapacity="900000.00"/>
            <step time="49.00" chargingStatus="chargingStopped" energyCharged="0.00" partialCharge="896744.87" power="2200000.00" efficiency="0.95" actualBatteryCapacity="900000.00" maximumBatteryCapacity="900000.00"/>
            <step time="50.00" chargingStatus="chargingStopped" energyCharged="0.00" partialCharge="896744.87" power="2200000.00" efficiency="0.95" actualBatteryCapacity="900000.00" maximumBatteryCapacity="900000.00"/>
            <step time="51.00" chargingStatus="chargingStopped" energyCharged="0.00" partialCharge="896744.87" power="2200000.00" efficiency="0.95" actualBatteryCapacity="900000.00" maximumBatteryCapacity="900000.00"/>
            <step time="52.00" chargingStatus="chargingStopped" energyCharged="0.00" partialCharge="896744.87" power="2200000.00" efficiency="0.95" actualBatteryCapacity="900000.00" maximumBatteryCapacity="900000.00"/>
            <step time="53.00" chargingStatus="chargingStopped" energyCharged="0.00" partialCharge="896744.87" power="2200000.00" efficiency="0.95" actualBatteryCapacity="900000.00" maximumBatteryCapacity="900000.00"/>
            <step time="54.00" chargingStatus="chargingStopped" energyCharged="0.00" partialCharge="896744.87" power="2200000.00" efficiency="0.95" actualBatteryCapacity="900000.00" maximumBatteryCapacity="900000.00"/>