<routes>
    <vType id="DEFAULT_VEHTYPE" sigma="0" speedDev="0"/>
    <trip id="v0" depart="0">
        <stop lane="SC_0" endPos="50" duration="10" arrival="20" until="30"/>
        <stop lane="CN_0" endPos="50" duration="10" arrival="30" until="40"/>
        <stop lane="CN_0" endPos="60" duration="10" arrival="140" until="150"/>
        <stop lane="NC_0" endPos="60" duration="10" arrival="150" until="160"/>
    </trip>
</routes>
