<routes xmlns:xsi="http://www.w3.org/2001/XMLSchema-instance" xsi:noNamespaceSchemaLocation="http://sumo.dlr.de/xsd/routes_file.xsd">

    <flow id="v" begin="0" end="100" period="2" departPos="base" departSpeed="max" route="1">
        <stop parkingArea="pa0" duration="80"/>
    </flow>


</routes>
