<?xml version="1.0" encoding="UTF-8"?>

<!-- generated on 2023-04-21 10:14:04 by Eclipse SUMO netedit Version v1_16_0+2264-6d5ab3ff809
-->

<additional xmlns:xsi="http://www.w3.org/2001/XMLSchema-instance" xsi:noNamespaceSchemaLocation="http://sumo.dlr.de/xsd/additional_file.xsd">
    <!-- Shapes -->
    <poi id="poi_0" color="red" layer="202.00" lon="10.510871" lat="0.000090"/>
</additional>
