<?xml version="1.0" encoding="UTF-8"?>

<!-- generated on 2024-03-14 16:46:46 by Eclipse SUMO netconvert Version v1_19_0+1300-b92ca839bda
This data file and the accompanying materials
are made available under the terms of the Eclipse Public License v2.0
which accompanies this distribution, and is available at
http://www.eclipse.org/legal/epl-v20.html
This file may also be made available under the following Secondary
Licenses when the conditions for such availability set forth in the Eclipse
Public License 2.0 are satisfied: GNU General Public License, version 2
or later which is available at
https://www.gnu.org/licenses/old-licenses/gpl-2.0-standalone.html
SPDX-License-Identifier: EPL-2.0 OR GPL-2.0-or-later
<configuration xmlns:xsi="http://www.w3.org/2001/XMLSchema-instance" xsi:noNamespaceSchemaLocation="http://sumo.dlr.de/xsd/netconvertConfiguration.xsd">

    <input>
        <osm-files value="osm.xml"/>
    </input>

    <output>
        <write-license value="true"/>
        <ptstop-output value="additional.xml"/>
        <ptline-output value="ptlines.xml"/>
    </output>

    <projection>
        <proj.utm value="true"/>
    </projection>

    <railway>
        <railway.topology.repair.minimal value="true"/>
    </railway>

    <report>
        <xml-validation value="never"/>
    </report>

</configuration>
-->

<additional xmlns:xsi="http://www.w3.org/2001/XMLSchema-instance" xsi:noNamespaceSchemaLocation="http://sumo.dlr.de/xsd/additional_file.xsd">
    <busStop id="2161757200" name="Leisewitzstraße" lane="25290479#1_0" startPos="91.34" endPos="116.34" friendlyPos="true" lines="2"/>
    <busStop id="302112841" name="Bürgerpark" lane="33289080_0" startPos="59.48" endPos="74.48" friendlyPos="true" lines="420"/>
    <busStop id="309922823" name="Bürgerpark" lane="320432219#0_0" startPos="18.55" endPos="33.55" friendlyPos="true" lines="420"/>
    <busStop id="3153581347" name="Heinrich-Büssing-Ring" lane="310144574#1_0" startPos="242.63" endPos="267.63" friendlyPos="true" lines="2 1"/>
    <busStop id="3153581348" name="Heinrich-Büssing-Ring" lane="310003023#0_0" startPos="124.90" endPos="149.90" friendlyPos="true" lines="2 1"/>
    <busStop id="3155095015" name="Leisewitzstraße" lane="310143559#1_0" startPos="91.13" endPos="116.13" friendlyPos="true" lines="2"/>
    <busStop id="3156641197" name="Bürgerpark" lane="310264604_0" startPos="28.86" endPos="53.86" friendlyPos="true" lines="2 1"/>
    <busStop id="3156641198" name="Jahnplatz" lane="393236369_0" startPos="402.20" endPos="427.20" friendlyPos="true" lines="2 1"/>
    <busStop id="3372476419" name="Jahnplatz" lane="393236370_0" startPos="74.57" endPos="99.57" friendlyPos="true" lines="2 1"/>
    <busStop id="51519930" name="Bürgerpark" lane="26811659#0_0" startPos="44.10" endPos="69.10" friendlyPos="true" lines="2 1"/>
</additional>
