<?xml version="1.0" encoding="UTF-8"?>

<!-- generated on Thu Apr 12 00:04:21 2018 by SUMO netconvert Version c8481b0
This data file and the accompanying materials
are made available under the terms of the Eclipse Public License v2.0
which accompanies this distribution, and is available at
http://www.eclipse.org/legal/epl-v20.html
SPDX-License-Identifier: EPL-2.0
<configuration xmlns:xsi="http://www.w3.org/2001/XMLSchema-instance" xsi:noNamespaceSchemaLocation="http://sumo.dlr.de/xsd/netconvertConfiguration.xsd">

    <input>
        <node-files value="input_plain.nod.xml"/>
        <edge-files value="input_plain.edg.xml"/>
    </input>

    <output>
        <write-license value="true"/>
    </output>

    <processing>
        <ignore-errors.edge-type value="true"/>
        <no-internal-links value="true"/>
        <no-turnarounds value="true"/>
    </processing>

    <report>
        <xml-validation value="never"/>
    </report>

</configuration>
-->

<net version="0.27" xmlns:xsi="http://www.w3.org/2001/XMLSchema-instance" xsi:noNamespaceSchemaLocation="http://sumo.dlr.de/xsd/net_file.xsd">

    <location netOffset="32.30,-107.18" convBoundary="0.00,0.00,63.14,11.97" origBoundary="-32.30,-59.62,78.87,123.72" projParameter="!"/>

    <edge id="CE" from="C" to="E" priority="-1">
        <lane id="CE_0" index="0" speed="13.90" length="23.43" shape="44.41,-1.60 63.14,-1.60"/>
    </edge>
    <edge id="CN" from="C" to="N" priority="-1">
        <lane id="CN_0" index="0" speed="13.90" length="11.97" shape="41.31,4.70 41.31,11.97"/>
    </edge>
    <edge id="CW" from="C" to="W" priority="-1">
        <lane id="CW_0" index="0" speed="13.90" length="39.71" shape="35.01,1.60 -0.00,1.60"/>
    </edge>
    <edge id="EC" from="E" to="C" priority="-1">
        <lane id="EC_0" index="0" speed="13.90" length="23.43" shape="63.14,1.60 44.41,1.60"/>
    </edge>
    <edge id="NC" from="N" to="C" priority="-1">
        <lane id="NC_0" index="0" speed="13.90" length="11.97" shape="38.11,11.97 38.11,4.70"/>
    </edge>
    <edge id="WC" from="W" to="C" priority="-1">
        <lane id="WC_0" index="0" speed="13.90" length="39.71" shape="-0.00,-1.60 35.01,-1.60"/>
    </edge>

    <junction id="C" type="priority" x="39.71" y="0.00" incLanes="NC_0 EC_0 WC_0" intLanes="" shape="36.51,4.70 42.91,4.70 44.41,3.20 44.41,-3.20 35.01,-3.20 35.01,3.20">
        <request index="0" response="001000" foes="001000"/>
        <request index="1" response="111000" foes="111000"/>
        <request index="2" response="000000" foes="100000"/>
        <request index="3" response="000000" foes="100011"/>
        <request index="4" response="000000" foes="000010"/>
        <request index="5" response="001100" foes="001110"/>
    </junction>
    <junction id="E" type="dead_end" x="63.14" y="0.00" incLanes="CE_0" intLanes="" shape="63.14,0.00 63.14,-3.20 63.14,0.00"/>
    <junction id="N" type="dead_end" x="39.71" y="11.97" incLanes="CN_0" intLanes="" shape="39.71,11.97 42.91,11.97 39.71,11.97"/>
    <junction id="W" type="dead_end" x="0.00" y="0.00" incLanes="CW_0" intLanes="" shape="-0.00,0.00 -0.00,3.20 -0.00,0.00"/>

    <connection from="EC" to="CN" fromLane="0" toLane="0" dir="r" state="M"/>
    <connection from="EC" to="CW" fromLane="0" toLane="0" dir="s" state="M"/>
    <connection from="NC" to="CW" fromLane="0" toLane="0" dir="r" state="m"/>
    <connection from="NC" to="CE" fromLane="0" toLane="0" dir="l" state="m"/>
    <connection from="WC" to="CE" fromLane="0" toLane="0" dir="s" state="M"/>
    <connection from="WC" to="CN" fromLane="0" toLane="0" dir="l" state="m"/>

</net>
