<?xml version="1.0" encoding="UTF-8"?>
<!-- generated on 2021-09-07 09:15:23.192557 by osmWebWizard.py v1_10_0+0528-7c882afb472
  options: <doubleminus>test-output test
-->
<routes xmlns:xsi="http://www.w3.org/2001/XMLSchema-instance" xsi:noNamespaceSchemaLocation="http://sumo.dlr.de/xsd/routes_file.xsd">
    <vType id="ped_pedestrian" vClass="pedestrian"/>
    <person id="ped0" depart="0.00" type="ped_pedestrian">
        <personTrip from="335704572" to="-155186522" modes="public"/>
    </person>
    <person id="ped1" depart="4.43" type="ped_pedestrian">
        <personTrip from="168940071#3" to="131505631#1" modes="public"/>
    </person>
    <person id="ped2" depart="8.87" type="ped_pedestrian">
        <personTrip from="388702041#3" to="346229515#2" modes="public"/>
    </person>
    <person id="ped3" depart="13.30" type="ped_pedestrian">
        <personTrip from="51167566" to="-304987178#1" modes="public"/>
    </person>
    <person id="ped4" depart="17.74" type="ped_pedestrian">
        <personTrip from="24243092#1" to="-164039095#1" modes="public"/>
    </person>
    <person id="ped5" depart="22.17" type="ped_pedestrian">
        <personTrip from="121717657#3" to="272757349#0" modes="public"/>
    </person>
    <person id="ped6" depart="26.61" type="ped_pedestrian">
        <personTrip from="-158023913#1" to="102408133#1" modes="public"/>
    </person>
    <person id="ped7" depart="31.04" type="ped_pedestrian">
        <personTrip from="340498982#1" to="274524374" modes="public"/>
    </person>
    <person id="ped8" depart="35.48" type="ped_pedestrian">
        <personTrip from="125438444" to="312019436#1" modes="public"/>
    </person>
    <person id="ped9" depart="39.91" type="ped_pedestrian">
        <personTrip from="4610525#0" to="-122820534#1" modes="public"/>
    </person>
    <person id="ped10" depart="44.34" type="ped_pedestrian">
        <personTrip from="4610362#7" to="374734396#2" modes="public"/>
    </person>
    <person id="ped11" depart="48.78" type="ped_pedestrian">
        <personTrip from="196850621" to="-4612968#3" modes="public"/>
    </person>
    <person id="ped12" depart="53.21" type="ped_pedestrian">
        <personTrip from="589906053#1" to="196850607#1" modes="public"/>
    </person>
    <person id="ped13" depart="57.65" type="ped_pedestrian">
        <personTrip from="-310176513#8" to="-31313667#2" modes="public"/>
    </person>
    <person id="ped14" depart="62.08" type="ped_pedestrian">
        <personTrip from="465376251#0" to="31313667#3" modes="public"/>
    </person>
    <person id="ped15" depart="66.52" type="ped_pedestrian">
        <personTrip from="4610472#2" to="384309028" modes="public"/>
    </person>
    <person id="ped16" depart="70.95" type="ped_pedestrian">
        <personTrip from="274513549" to="61584187#4" modes="public"/>
    </person>
    <person id="ped17" depart="75.38" type="ped_pedestrian">
        <personTrip from="228484735" to="280007138" modes="public"/>
    </person>
    <person id="ped18" depart="79.82" type="ped_pedestrian">
        <personTrip from="4613295#0" to="327519011#0" modes="public"/>
    </person>
    <person id="ped19" depart="84.25" type="ped_pedestrian">
        <personTrip from="4773024#0" to="30721660#2" modes="public"/>
    </person>
    <person id="ped20" depart="88.69" type="ped_pedestrian">
        <personTrip from="37612430" to="-194177696" modes="public"/>
    </person>
    <person id="ped21" depart="93.12" type="ped_pedestrian">
        <personTrip from="133885749#1" to="170302411" modes="public"/>
    </person>
    <person id="ped22" depart="97.56" type="ped_pedestrian">
        <personTrip from="-263821578" to="134021303" modes="public"/>
    </person>
    <person id="ped23" depart="101.99" type="ped_pedestrian">
        <personTrip from="-326116285#2" to="169195791#1" modes="public"/>
    </person>
    <person id="ped24" depart="106.43" type="ped_pedestrian">
        <personTrip from="335576652#1" to="202157031#1" modes="public"/>
    </person>
    <person id="ped25" depart="110.86" type="ped_pedestrian">
        <personTrip from="217531415" to="112128418#1" modes="public"/>
    </person>
    <person id="ped26" depart="115.29" type="ped_pedestrian">
        <personTrip from="164874305" to="562707499" modes="public"/>
    </person>
    <person id="ped27" depart="119.73" type="ped_pedestrian">
        <personTrip from="340498976#3" to="31609479" modes="public"/>
    </person>
    <person id="ped28" depart="124.16" type="ped_pedestrian">
        <personTrip from="-530085630" to="38211708#1" modes="public"/>
    </person>
    <person id="ped29" depart="128.60" type="ped_pedestrian">
        <personTrip from="-4840977#1" to="229531159" modes="public"/>
    </person>
    <person id="ped30" depart="133.03" type="ped_pedestrian">
        <personTrip from="8008608" to="335768405#0" modes="public"/>
    </person>
    <person id="ped31" depart="137.47" type="ped_pedestrian">
        <personTrip from="28016309#2" to="35578576#2" modes="public"/>
    </person>
    <person id="ped32" depart="141.90" type="ped_pedestrian">
        <personTrip from="46517262#6" to="437325048#0" modes="public"/>
    </person>
    <person id="ped33" depart="146.33" type="ped_pedestrian">
        <personTrip from="133885750#2" to="-168940071#0" modes="public"/>
    </person>
    <person id="ped34" depart="150.77" type="ped_pedestrian">
        <personTrip from="181587282" to="164874308" modes="public"/>
    </person>
    <person id="ped35" depart="155.20" type="ped_pedestrian">
        <personTrip from="112128419#1" to="566155005" modes="public"/>
    </person>
    <person id="ped36" depart="159.64" type="ped_pedestrian">
        <personTrip from="4840974#2" to="176043824" modes="public"/>
    </person>
    <person id="ped37" depart="164.07" type="ped_pedestrian">
        <personTrip from="344595603" to="235503140#1" modes="public"/>
    </person>
    <person id="ped38" depart="168.51" type="ped_pedestrian">
        <personTrip from="530111226" to="260138638#1" modes="public"/>
    </person>
    <person id="ped39" depart="172.94" type="ped_pedestrian">
        <personTrip from="163368988#3" to="147066248#2" modes="public"/>
    </person>
    <person id="ped40" depart="177.38" type="ped_pedestrian">
        <personTrip from="285825377" to="15973619#3" modes="public"/>
    </person>
    <person id="ped41" depart="181.81" type="ped_pedestrian">
        <personTrip from="310176513#8" to="51167934#2" modes="public"/>
    </person>
    <person id="ped42" depart="186.24" type="ped_pedestrian">
        <personTrip from="237520773#4" to="122820534#0" modes="public"/>
    </person>
    <person id="ped43" depart="190.68" type="ped_pedestrian">
        <personTrip from="83517332#1" to="272780733#0" modes="public"/>
    </person>
    <person id="ped44" depart="195.11" type="ped_pedestrian">
        <personTrip from="-310176513#1" to="-194962398#0" modes="public"/>
    </person>
    <person id="ped45" depart="199.55" type="ped_pedestrian">
        <personTrip from="-340498976#7" to="335009920" modes="public"/>
    </person>
    <person id="ped46" depart="203.98" type="ped_pedestrian">
        <personTrip from="449849679#1" to="24243101" modes="public"/>
    </person>
    <person id="ped47" depart="208.42" type="ped_pedestrian">
        <personTrip from="-23443935#1" to="22954356#4" modes="public"/>
    </person>
    <person id="ped48" depart="212.85" type="ped_pedestrian">
        <personTrip from="82659290#0" to="272795500#5" modes="public"/>
    </person>
    <person id="ped49" depart="217.28" type="ped_pedestrian">
        <personTrip from="61583422" to="475297968#0" modes="public"/>
    </person>
    <person id="ped50" depart="221.72" type="ped_pedestrian">
        <personTrip from="-133885744#0" to="379797004#2" modes="public"/>
    </person>
    <person id="ped51" depart="226.15" type="ped_pedestrian">
        <personTrip from="35269774#3" to="274513552" modes="public"/>
    </person>
    <person id="ped52" depart="230.59" type="ped_pedestrian">
        <personTrip from="164874304" to="337139762" modes="public"/>
    </person>
    <person id="ped53" depart="235.02" type="ped_pedestrian">
        <personTrip from="-34848160#0" to="24993933#2" modes="public"/>
    </person>
    <person id="ped54" depart="239.46" type="ped_pedestrian">
        <personTrip from="254523899" to="577274550" modes="public"/>
    </person>
    <person id="ped55" depart="243.89" type="ped_pedestrian">
        <personTrip from="4840974#0" to="15973619#5" modes="public"/>
    </person>
    <person id="ped56" depart="248.33" type="ped_pedestrian">
        <personTrip from="272757342#2" to="-570058781#1" modes="public"/>
    </person>
    <person id="ped57" depart="252.76" type="ped_pedestrian">
        <personTrip from="523633033" to="48095588#2" modes="public"/>
    </person>
    <person id="ped58" depart="257.19" type="ped_pedestrian">
        <personTrip from="171826986#0" to="335704571" modes="public"/>
    </person>
    <person id="ped59" depart="261.63" type="ped_pedestrian">
        <personTrip from="31609479" to="-4611713#0" modes="public"/>
    </person>
    <person id="ped60" depart="266.06" type="ped_pedestrian">
        <personTrip from="427637455#1" to="274513566#1" modes="public"/>
    </person>
    <person id="ped61" depart="270.50" type="ped_pedestrian">
        <personTrip from="437500499" to="272795503#0" modes="public"/>
    </person>
    <person id="ped62" depart="274.93" type="ped_pedestrian">
        <personTrip from="-104991251" to="194073677#0" modes="public"/>
    </person>
    <person id="ped63" depart="279.37" type="ped_pedestrian">
        <personTrip from="-137085417" to="553649891#1" modes="public"/>
    </person>
    <person id="ped64" depart="283.80" type="ped_pedestrian">
        <personTrip from="48435438" to="4613308#1" modes="public"/>
    </person>
    <person id="ped65" depart="288.24" type="ped_pedestrian">
        <personTrip from="175499827" to="-225400578#0" modes="public"/>
    </person>
    <person id="ped66" depart="292.67" type="ped_pedestrian">
        <personTrip from="48435394" to="570058775#1" modes="public"/>
    </person>
    <person id="ped67" depart="297.10" type="ped_pedestrian">
        <personTrip from="-292429062#3" to="272757315" modes="public"/>
    </person>
    <person id="ped68" depart="301.54" type="ped_pedestrian">
        <personTrip from="-24241797#3" to="424351834" modes="public"/>
    </person>
    <person id="ped69" depart="305.97" type="ped_pedestrian">
        <personTrip from="43158961#2" to="-43346200#4" modes="public"/>
    </person>
    <person id="ped70" depart="310.41" type="ped_pedestrian">
        <personTrip from="272757271" to="275008387#1" modes="public"/>
    </person>
    <person id="ped71" depart="314.84" type="ped_pedestrian">
        <personTrip from="163368988#3" to="482809615" modes="public"/>
    </person>
    <person id="ped72" depart="319.28" type="ped_pedestrian">
        <personTrip from="24273323#0" to="112128825#0" modes="public"/>
    </person>
    <person id="ped73" depart="323.71" type="ped_pedestrian">
        <personTrip from="274513566#1" to="384309029" modes="public"/>
    </person>
    <person id="ped74" depart="328.14" type="ped_pedestrian">
        <personTrip from="104991251" to="175885746#3" modes="public"/>
    </person>
    <person id="ped75" depart="332.58" type="ped_pedestrian">
        <personTrip from="82658674#2" to="340498982#1" modes="public"/>
    </person>
    <person id="ped76" depart="337.01" type="ped_pedestrian">
        <personTrip from="254339569" to="272780758#0" modes="public"/>
    </person>
    <person id="ped77" depart="341.45" type="ped_pedestrian">
        <personTrip from="-409506038#1" to="132460631#0" modes="public"/>
    </person>
    <person id="ped78" depart="345.88" type="ped_pedestrian">
        <personTrip from="196850609#1" to="31112516#1" modes="public"/>
    </person>
    <person id="ped79" depart="350.32" type="ped_pedestrian">
        <personTrip from="133957850" to="123264596" modes="public"/>
    </person>
    <person id="ped80" depart="354.75" type="ped_pedestrian">
        <personTrip from="-24243092#0" to="335576640" modes="public"/>
    </person>
    <person id="ped81" depart="359.19" type="ped_pedestrian">
        <personTrip from="133885750#0" to="519881010" modes="public"/>
    </person>
    <person id="ped82" depart="363.62" type="ped_pedestrian">
        <personTrip from="475297457#2" to="-24242892#6" modes="public"/>
    </person>
    <person id="ped83" depart="368.05" type="ped_pedestrian">
        <personTrip from="137085417" to="346212656#5" modes="public"/>
    </person>
    <person id="ped84" depart="372.49" type="ped_pedestrian">
        <personTrip from="113589281#2" to="-4403559#0" modes="public"/>
    </person>
    <person id="ped85" depart="376.92" type="ped_pedestrian">
        <personTrip from="561333203" to="304514893#3" modes="public"/>
    </person>
    <person id="ped86" depart="381.36" type="ped_pedestrian">
        <personTrip from="272757263" to="440946425" modes="public"/>
    </person>
    <person id="ped87" depart="385.79" type="ped_pedestrian">
        <personTrip from="4610476#1" to="-7917219#3" modes="public"/>
    </person>
    <person id="ped88" depart="390.23" type="ped_pedestrian">
        <personTrip from="-314433242" to="24913519#2" modes="public"/>
    </person>
    <person id="ped89" depart="394.66" type="ped_pedestrian">
        <personTrip from="24273323#1" to="26733828#2" modes="public"/>
    </person>
    <person id="ped90" depart="399.09" type="ped_pedestrian">
        <personTrip from="38211708#1" to="346213311#4" modes="public"/>
    </person>
    <person id="ped91" depart="403.53" type="ped_pedestrian">
        <personTrip from="72157175#1" to="-31959087#0" modes="public"/>
    </person>
    <person id="ped92" depart="407.96" type="ped_pedestrian">
        <personTrip from="23755950#0" to="196850613" modes="public"/>
    </person>
    <person id="ped93" depart="412.40" type="ped_pedestrian">
        <personTrip from="4773024#0" to="153692976#0" modes="public"/>
    </person>
    <person id="ped94" depart="416.83" type="ped_pedestrian">
        <personTrip from="-7917219#2" to="254523873" modes="public"/>
    </person>
    <person id="ped95" depart="421.27" type="ped_pedestrian">
        <personTrip from="24243092#1" to="169195791#3" modes="public"/>
    </person>
    <person id="ped96" depart="425.70" type="ped_pedestrian">
        <personTrip from="153698394#1" to="541864434#1" modes="public"/>
    </person>
    <person id="ped97" depart="430.14" type="ped_pedestrian">
        <personTrip from="254339591#0" to="4773023#0" modes="public"/>
    </person>
    <person id="ped98" depart="434.57" type="ped_pedestrian">
        <personTrip from="275177453" to="-195104956" modes="public"/>
    </person>
    <person id="ped99" depart="439.00" type="ped_pedestrian">
        <personTrip from="84960595" to="463829476#1" modes="public"/>
    </person>
    <person id="ped100" depart="443.44" type="ped_pedestrian">
        <personTrip from="606078069#0" to="553121559" modes="public"/>
    </person>
    <person id="ped101" depart="447.87" type="ped_pedestrian">
        <personTrip from="465376254" to="-510625575" modes="public"/>
    </person>
    <person id="ped102" depart="452.31" type="ped_pedestrian">
        <personTrip from="272757312" to="113589281#0" modes="public"/>
    </person>
    <person id="ped103" depart="456.74" type="ped_pedestrian">
        <personTrip from="237522574#1" to="-226046736#1" modes="public"/>
    </person>
    <person id="ped104" depart="461.18" type="ped_pedestrian">
        <personTrip from="228484736" to="72455515" modes="public"/>
    </person>
    <person id="ped105" depart="465.61" type="ped_pedestrian">
        <personTrip from="164039095#0" to="4403559#0" modes="public"/>
    </person>
    <person id="ped106" depart="470.04" type="ped_pedestrian">
        <personTrip from="254523901#1" to="24243107#2" modes="public"/>
    </person>
    <person id="ped107" depart="474.48" type="ped_pedestrian">
        <personTrip from="589906053#1" to="82658674#3" modes="public"/>
    </person>
    <person id="ped108" depart="478.91" type="ped_pedestrian">
        <personTrip from="280007142#6" to="378662082" modes="public"/>
    </person>
    <person id="ped109" depart="483.35" type="ped_pedestrian">
        <personTrip from="-4612968#0" to="171826984#3" modes="public"/>
    </person>
    <person id="ped110" depart="487.78" type="ped_pedestrian">
        <personTrip from="606078068" to="30826268#1" modes="public"/>
    </person>
    <person id="ped111" depart="492.22" type="ped_pedestrian">
        <personTrip from="274524361#0" to="4067932#1" modes="public"/>
    </person>
    <person id="ped112" depart="496.65" type="ped_pedestrian">
        <personTrip from="-202817674#2" to="310176513#6" modes="public"/>
    </person>
    <person id="ped113" depart="501.09" type="ped_pedestrian">
        <personTrip from="272757346#0" to="465398530#5" modes="public"/>
    </person>
    <person id="ped114" depart="505.52" type="ped_pedestrian">
        <personTrip from="-4613293" to="59286191" modes="public"/>
    </person>
    <person id="ped115" depart="509.95" type="ped_pedestrian">
        <personTrip from="-268002745" to="-66071366#1" modes="public"/>
    </person>
    <person id="ped116" depart="514.39" type="ped_pedestrian">
        <personTrip from="312392966#5" to="346213314" modes="public"/>
    </person>
    <person id="ped117" depart="518.82" type="ped_pedestrian">
        <personTrip from="137085410#5" to="-389101385" modes="public"/>
    </person>
    <person id="ped118" depart="523.26" type="ped_pedestrian">
        <personTrip from="51167561#0" to="147066248#1" modes="public"/>
    </person>
    <person id="ped119" depart="527.69" type="ped_pedestrian">
        <personTrip from="312392966#3" to="327519012#0" modes="public"/>
    </person>
    <person id="ped120" depart="532.13" type="ped_pedestrian">
        <personTrip from="24242882#2" to="310176513#4" modes="public"/>
    </person>
    <person id="ped121" depart="536.56" type="ped_pedestrian">
        <personTrip from="272795489#0" to="560370523" modes="public"/>
    </person>
    <person id="ped122" depart="541.00" type="ped_pedestrian">
        <personTrip from="108481483#0" to="378150075#0" modes="public"/>
    </person>
    <person id="ped123" depart="545.43" type="ped_pedestrian">
        <personTrip from="137085420" to="235503140#1" modes="public"/>
    </person>
    <person id="ped124" depart="549.86" type="ped_pedestrian">
        <personTrip from="346212660#3" to="171826987#4" modes="public"/>
    </person>
    <person id="ped125" depart="554.30" type="ped_pedestrian">
        <personTrip from="181587284#0" to="410310755#4" modes="public"/>
    </person>
    <person id="ped126" depart="558.73" type="ped_pedestrian">
        <personTrip from="-24243107#2" to="25959593" modes="public"/>
    </person>
    <person id="ped127" depart="563.17" type="ped_pedestrian">
        <personTrip from="83517336#0" to="82659290#0" modes="public"/>
    </person>
    <person id="ped128" depart="567.60" type="ped_pedestrian">
        <personTrip from="-24509314" to="113589280#2" modes="public"/>
    </person>
    <person id="ped129" depart="572.04" type="ped_pedestrian">
        <personTrip from="164039095#0" to="557076776#0" modes="public"/>
    </person>
    <person id="ped130" depart="576.47" type="ped_pedestrian">
        <personTrip from="48664687#1" to="48435510" modes="public"/>
    </person>
    <person id="ped131" depart="580.90" type="ped_pedestrian">
        <personTrip from="205728152#1" to="-4613299#0" modes="public"/>
    </person>
    <person id="ped132" depart="585.34" type="ped_pedestrian">
        <personTrip from="461526152" to="375901779#7" modes="public"/>
    </person>
    <person id="ped133" depart="589.77" type="ped_pedestrian">
        <personTrip from="31959084" to="76865764#0" modes="public"/>
    </person>
    <person id="ped134" depart="594.21" type="ped_pedestrian">
        <personTrip from="344594969" to="-128396190#1" modes="public"/>
    </person>
    <person id="ped135" depart="598.64" type="ped_pedestrian">
        <personTrip from="4611696#4" to="171826987#0" modes="public"/>
    </person>
    <person id="ped136" depart="603.08" type="ped_pedestrian">
        <personTrip from="346206372#2" to="566154988" modes="public"/>
    </person>
    <person id="ped137" depart="607.51" type="ped_pedestrian">
        <personTrip from="-45235049#1" to="-369223458#0" modes="public"/>
    </person>
    <person id="ped138" depart="611.95" type="ped_pedestrian">
        <personTrip from="-339201240#0" to="280007140#2" modes="public"/>
    </person>
    <person id="ped139" depart="616.38" type="ped_pedestrian">
        <personTrip from="16873017#1" to="313195119" modes="public"/>
    </person>
    <person id="ped140" depart="620.81" type="ped_pedestrian">
        <personTrip from="378660724#0" to="107747047#3" modes="public"/>
    </person>
    <person id="ped141" depart="625.25" type="ped_pedestrian">
        <personTrip from="335576648#0" to="15977422#0" modes="public"/>
    </person>
    <person id="ped142" depart="629.68" type="ped_pedestrian">
        <personTrip from="272757320#0" to="519881010" modes="public"/>
    </person>
    <person id="ped143" depart="634.12" type="ped_pedestrian">
        <personTrip from="465376246#1" to="-310176513#5" modes="public"/>
    </person>
    <person id="ped144" depart="638.55" type="ped_pedestrian">
        <personTrip from="24273323#1" to="169067264#1" modes="public"/>
    </person>
    <person id="ped145" depart="642.99" type="ped_pedestrian">
        <personTrip from="-111833186#0" to="43186240" modes="public"/>
    </person>
    <person id="ped146" depart="647.42" type="ped_pedestrian">
        <personTrip from="335703509" to="15973619#0" modes="public"/>
    </person>
    <person id="ped147" depart="651.85" type="ped_pedestrian">
        <personTrip from="389705411" to="280007133" modes="public"/>
    </person>
    <person id="ped148" depart="656.29" type="ped_pedestrian">
        <personTrip from="24540240#1" to="-132460631#1" modes="public"/>
    </person>
    <person id="ped149" depart="660.72" type="ped_pedestrian">
        <personTrip from="-24990040" to="492027387" modes="public"/>
    </person>
    <person id="ped150" depart="665.16" type="ped_pedestrian">
        <personTrip from="518508124#4" to="274524375#1" modes="public"/>
    </person>
    <person id="ped151" depart="669.59" type="ped_pedestrian">
        <personTrip from="463829469#0" to="310176513#0" modes="public"/>
    </person>
    <person id="ped152" depart="674.03" type="ped_pedestrian">
        <personTrip from="-4610610#1" to="-43231842#0" modes="public"/>
    </person>
    <person id="ped153" depart="678.46" type="ped_pedestrian">
        <personTrip from="175499833#0" to="51234181" modes="public"/>
    </person>
    <person id="ped154" depart="682.90" type="ped_pedestrian">
        <personTrip from="454285423#0" to="475297968#0" modes="public"/>
    </person>
    <person id="ped155" depart="687.33" type="ped_pedestrian">
        <personTrip from="51234181" to="112128418#3" modes="public"/>
    </person>
    <person id="ped156" depart="691.76" type="ped_pedestrian">
        <personTrip from="153698390#1" to="-33036326" modes="public"/>
    </person>
    <person id="ped157" depart="696.20" type="ped_pedestrian">
        <personTrip from="437500504#0" to="492609984" modes="public"/>
    </person>
    <person id="ped158" depart="700.63" type="ped_pedestrian">
        <personTrip from="23851897#0" to="327519012#5" modes="public"/>
    </person>
    <person id="ped159" depart="705.07" type="ped_pedestrian">
        <personTrip from="-4612966" to="554949050" modes="public"/>
    </person>
    <person id="ped160" depart="709.50" type="ped_pedestrian">
        <personTrip from="4773463#0" to="6227658#2" modes="public"/>
    </person>
    <person id="ped161" depart="713.94" type="ped_pedestrian">
        <personTrip from="4610599" to="48664717#1" modes="public"/>
    </person>
    <person id="ped162" depart="718.37" type="ped_pedestrian">
        <personTrip from="-153698402" to="388702041#4" modes="public"/>
    </person>
    <person id="ped163" depart="722.80" type="ped_pedestrian">
        <personTrip from="195105328#1" to="556076653" modes="public"/>
    </person>
    <person id="ped164" depart="727.24" type="ped_pedestrian">
        <personTrip from="4610354" to="4773029#0" modes="public"/>
    </person>
    <person id="ped165" depart="731.67" type="ped_pedestrian">
        <personTrip from="4610599" to="164874304" modes="public"/>
    </person>
    <person id="ped166" depart="736.11" type="ped_pedestrian">
        <personTrip from="4412868" to="-340498976#2" modes="public"/>
    </person>
    <person id="ped167" depart="740.54" type="ped_pedestrian">
        <personTrip from="482809614" to="474154190#1" modes="public"/>
    </person>
    <person id="ped168" depart="744.98" type="ped_pedestrian">
        <personTrip from="128396190#4" to="4611694" modes="public"/>
    </person>
    <person id="ped169" depart="749.41" type="ped_pedestrian">
        <personTrip from="260138639#1" to="173197451#3" modes="public"/>
    </person>
    <person id="ped170" depart="753.85" type="ped_pedestrian">
        <personTrip from="449982384#1" to="133885747" modes="public"/>
    </person>
    <person id="ped171" depart="758.28" type="ped_pedestrian">
        <personTrip from="-153698380#2" to="-83517339" modes="public"/>
    </person>
    <person id="ped172" depart="762.71" type="ped_pedestrian">
        <personTrip from="194962997#1" to="4773029#1" modes="public"/>
    </person>
    <person id="ped173" depart="767.15" type="ped_pedestrian">
        <personTrip from="60333309#0" to="169195795#1" modes="public"/>
    </person>
    <person id="ped174" depart="771.58" type="ped_pedestrian">
        <personTrip from="339201177#0" to="237520773#5" modes="public"/>
    </person>
    <person id="ped175" depart="776.02" type="ped_pedestrian">
        <personTrip from="72157168#0" to="274513549" modes="public"/>
    </person>
    <person id="ped176" depart="780.45" type="ped_pedestrian">
        <personTrip from="566154989" to="-369223458#0" modes="public"/>
    </person>
    <person id="ped177" depart="784.89" type="ped_pedestrian">
        <personTrip from="61579355" to="-570058781#1" modes="public"/>
    </person>
    <person id="ped178" depart="789.32" type="ped_pedestrian">
        <personTrip from="59286500#0" to="164039095#1" modes="public"/>
    </person>
    <person id="ped179" depart="793.76" type="ped_pedestrian">
        <personTrip from="-340498976#3" to="24993933#1" modes="public"/>
    </person>
    <person id="ped180" depart="798.19" type="ped_pedestrian">
        <personTrip from="38208961" to="176043806#0" modes="public"/>
    </person>
    <person id="ped181" depart="802.62" type="ped_pedestrian">
        <personTrip from="313323171#0" to="272780741" modes="public"/>
    </person>
    <person id="ped182" depart="807.06" type="ped_pedestrian">
        <personTrip from="230015283" to="30720544#1" modes="public"/>
    </person>
    <person id="ped183" depart="811.49" type="ped_pedestrian">
        <personTrip from="158023913#0" to="377215961#1" modes="public"/>
    </person>
    <person id="ped184" depart="815.93" type="ped_pedestrian">
        <personTrip from="-110464118#0" to="54781811#0" modes="public"/>
    </person>
    <person id="ped185" depart="820.36" type="ped_pedestrian">
        <personTrip from="274513565#0" to="378662088#0" modes="public"/>
    </person>
    <person id="ped186" depart="824.80" type="ped_pedestrian">
        <personTrip from="394345496#0" to="346212660#0" modes="public"/>
    </person>
    <person id="ped187" depart="829.23" type="ped_pedestrian">
        <personTrip from="202157030#0" to="-24242882#2" modes="public"/>
    </person>
    <person id="ped188" depart="833.66" type="ped_pedestrian">
        <personTrip from="346206377#1" to="195089288#0" modes="public"/>
    </person>
    <person id="ped189" depart="838.10" type="ped_pedestrian">
        <personTrip from="176043806#1" to="465376251#2" modes="public"/>
    </person>
    <person id="ped190" depart="842.53" type="ped_pedestrian">
        <personTrip from="378662088#1" to="171826987#5" modes="public"/>
    </person>
    <person id="ped191" depart="846.97" type="ped_pedestrian">
        <personTrip from="175506752" to="23851917#0" modes="public"/>
    </person>
    <person id="ped192" depart="851.40" type="ped_pedestrian">
        <personTrip from="23755950#0" to="171423001#1" modes="public"/>
    </person>
    <person id="ped193" depart="855.84" type="ped_pedestrian">
        <personTrip from="-43230886" to="24243052#1" modes="public"/>
    </person>
    <person id="ped194" depart="860.27" type="ped_pedestrian">
        <personTrip from="566154994" to="346229515#4" modes="public"/>
    </person>
    <person id="ped195" depart="864.71" type="ped_pedestrian">
        <personTrip from="518508124#0" to="326116286#0" modes="public"/>
    </person>
    <person id="ped196" depart="869.14" type="ped_pedestrian">
        <personTrip from="171829093" to="274524381#0" modes="public"/>
    </person>
    <person id="ped197" depart="873.57" type="ped_pedestrian">
        <personTrip from="-102408133#1" to="170077667#0" modes="public"/>
    </person>
    <person id="ped198" depart="878.01" type="ped_pedestrian">
        <personTrip from="24913267#0" to="309147331#0" modes="public"/>
    </person>
    <person id="ped199" depart="882.44" type="ped_pedestrian">
        <personTrip from="344595600" to="266572297#1" modes="public"/>
    </person>
    <person id="ped200" depart="886.88" type="ped_pedestrian">