<?xml version="1.0" encoding="UTF-8"?>
<!-- generated on 2017-11-02 17:11:12.862954 by $Id$
  options: <doubleminus>testing
-->
<routes xmlns:xsi="http://www.w3.org/2001/XMLSchema-instance" xsi:noNamespaceSchemaLocation="http://sumo.dlr.de/xsd/routes_file.xsd">
    <vType id="pedestrian" vClass="pedestrian" speedDev="0.1"/>
    <person id="ped0" depart="0.00">
        <personTrip from="272780756#0" to="-143201761" modes="public"/>
    </person>
    <person id="ped1" depart="3.96">
        <personTrip from="156364559#0" to="120675240#0" modes="public"/>
    </person>
    <person id="ped2" depart="7.92">
        <personTrip from="31112379" to="274524361" modes="public"/>
    </person>
    <person id="ped3" depart="11.88">
        <personTrip from="48923244" to="-23809670#2" modes="public"/>
    </person>
    <person id="ped4" depart="15.84">
        <personTrip from="202157018#1" to="-15973619" modes="public"/>
    </person>
    <person id="ped5" depart="19.79">
        <personTrip from="113589280#2" to="24243107#3" modes="public"/>
    </person>
    <person id="ped6" depart="23.75">
        <personTrip from="-153692976#1" to="102408133#1" modes="public"/>
    </person>
    <person id="ped7" depart="27.71">
        <personTrip from="272795494#0" to="254523866" modes="public"/>
    </person>
    <person id="ped8" depart="31.67">
        <personTrip from="113595955#1" to="272757286" modes="public"/>
    </person>
    <person id="ped9" depart="35.63">
        <personTrip from="43156728#1" to="-111833186#1" modes="public"/>
    </person>
    <person id="ped10" depart="39.59">
        <personTrip from="38711947#0" to="284514067" modes="public"/>
    </person>
    <person id="ped11" depart="43.55">
        <personTrip from="175499833#0" to="-4610609#0" modes="public"/>
    </person>
    <person id="ped12" depart="47.51">
        <personTrip from="7917219#3" to="173197451#2" modes="public"/>
    </person>
    <person id="ped13" depart="51.47">
        <personTrip from="-24242892#3" to="-24509315#2" modes="public"/>
    </person>
    <person id="ped14" depart="55.42">
        <personTrip from="4611690#1" to="272757324#0" modes="public"/>
    </person>
    <person id="ped15" depart="59.38">
        <personTrip from="41404377#1" to="310184349#0" modes="public"/>
    </person>
    <person id="ped16" depart="63.34">
        <personTrip from="254339583" to="88361586#1" modes="public"/>
    </person>
    <person id="ped17" depart="67.30">
        <personTrip from="194962380#0" to="254523890" modes="public"/>
    </person>
    <person id="ped18" depart="71.26">
        <personTrip from="4592725#1" to="272757344#0" modes="public"/>
    </person>
    <person id="ped19" depart="75.22">
        <personTrip from="4613096#1" to="268940759" modes="public"/>
    </person>
    <person id="ped20" depart="79.18">
        <personTrip from="288726033#0" to="-183649398" modes="public"/>
    </person>
    <person id="ped21" depart="83.14">
        <personTrip from="123074181#3" to="164874308" modes="public"/>
    </person>
    <person id="ped22" depart="87.10">
        <personTrip from="-23121445#5" to="131330589" modes="public"/>
    </person>
    <person id="ped23" depart="91.05">
        <personTrip from="-24992424#1" to="159200257#2" modes="public"/>
    </person>
    <person id="ped24" depart="95.01">
        <personTrip from="272780750#0" to="19001381#0" modes="public"/>
    </person>
    <person id="ped25" depart="98.97">
        <personTrip from="194073676" to="110676319" modes="public"/>
    </person>
    <person id="ped26" depart="102.93">
        <personTrip from="147686947" to="61584187#2" modes="public"/>
    </person>
    <person id="ped27" depart="106.89">
        <personTrip from="272795489" to="272757333#0" modes="public"/>
    </person>
    <person id="ped28" depart="110.85">
        <personTrip from="-47016368#1" to="310176513#6" modes="public"/>
    </person>
    <person id="ped29" depart="114.81">
        <personTrip from="-4612968#4" to="194962388" modes="public"/>
    </person>
    <person id="ped30" depart="118.77">
        <personTrip from="88462842#3" to="272780757" modes="public"/>
    </person>
    <person id="ped31" depart="122.73">
        <personTrip from="254523899#1" to="274524381#0" modes="public"/>
    </person>
    <person id="ped32" depart="126.69">
        <personTrip from="4610597#1" to="31959081#1" modes="public"/>
    </person>
    <person id="ped33" depart="130.64">
        <personTrip from="123264596" to="-168935756" modes="public"/>
    </person>
    <person id="ped34" depart="134.60">
        <personTrip from="170517259" to="150634670#1" modes="public"/>
    </person>
    <person id="ped35" depart="138.56">
        <personTrip from="111251382#0" to="6228081" modes="public"/>
    </person>
    <person id="ped36" depart="142.52">
        <personTrip from="4773027#2" to="170392872" modes="public"/>
    </person>
    <person id="ped37" depart="146.48">
        <personTrip from="272795501#3" to="195411604#3" modes="public"/>
    </person>
    <person id="ped38" depart="150.44">
        <personTrip from="53609869#2" to="23121444" modes="public"/>
    </person>
    <person id="ped39" depart="154.40">
        <personTrip from="143201756#1" to="134021300#5" modes="public"/>
    </person>
    <person id="ped40" depart="158.36">
        <personTrip from="254523910#0" to="139877314#2" modes="public"/>
    </person>
    <person id="ped41" depart="162.32">
        <personTrip from="272757270" to="51167928#0" modes="public"/>
    </person>
    <person id="ped42" depart="166.27">
        <personTrip from="196850608#1" to="113589281#0" modes="public"/>
    </person>
    <person id="ped43" depart="170.23">
        <personTrip from="98749939#3" to="24509315#0" modes="public"/>
    </person>
    <person id="ped44" depart="174.19">
        <personTrip from="-24242882#0" to="-19002363#1" modes="public"/>
    </person>
    <person id="ped45" depart="178.15">
        <personTrip from="-27628624" to="272780730" modes="public"/>
    </person>
    <person id="ped46" depart="182.11">
        <personTrip from="330832909" to="202157018#2" modes="public"/>
    </person>
    <person id="ped47" depart="186.07">
        <personTrip from="-195089288#0" to="194962398#2" modes="public"/>
    </person>
    <person id="ped48" depart="190.03">
        <personTrip from="98008454" to="254339563#0" modes="public"/>
    </person>
    <person id="ped49" depart="193.99">
        <personTrip from="83517336#5" to="4612976#1" modes="public"/>
    </person>
    <person id="ped50" depart="197.95">
        <personTrip from="-131420077#0" to="30720544#1" modes="public"/>
    </person>
    <person id="ped51" depart="201.90">
        <personTrip from="274524376" to="254339586" modes="public"/>
    </person>
    <person id="ped52" depart="205.86">
        <personTrip from="147066248" to="272780759#0" modes="public"/>
    </person>
    <person id="ped53" depart="209.82">
        <personTrip from="-28016312" to="204666792" modes="public"/>
    </person>
    <person id="ped54" depart="213.78">
        <personTrip from="22972473#0" to="73310499#2" modes="public"/>
    </person>
    <person id="ped55" depart="217.74">
        <personTrip from="4773027#0" to="143201755#0" modes="public"/>
    </person>
    <person id="ped56" depart="221.70">
        <personTrip from="24242892#0" to="-55741054" modes="public"/>
    </person>
    <person id="ped57" depart="225.66">
        <personTrip from="52349369#3" to="46517262#0" modes="public"/>
    </person>
    <person id="ped58" depart="229.62">
        <personTrip from="169067264#1" to="272780755#1" modes="public"/>
    </person>
    <person id="ped59" depart="233.58">
        <personTrip from="272757332#1" to="-4610527#2" modes="public"/>
    </person>
    <person id="ped60" depart="237.53">
        <personTrip from="312869977" to="254339591#1" modes="public"/>
    </person>
    <person id="ped61" depart="241.49">
        <personTrip from="320454751" to="254339566" modes="public"/>
    </person>
    <person id="ped62" depart="245.45">
        <personTrip from="-100944802#1" to="171826985#1" modes="public"/>
    </person>
    <person id="ped63" depart="249.41">
        <personTrip from="-137085411#4" to="59331208" modes="public"/>
    </person>
    <person id="ped64" depart="253.37">
        <personTrip from="4773465#1" to="4610355#2" modes="public"/>
    </person>
    <person id="ped65" depart="257.33">
        <personTrip from="170077662#1" to="-194962392" modes="public"/>
    </person>
    <person id="ped66" depart="261.29">
        <personTrip from="4773463#2" to="72157168#1" modes="public"/>
    </person>
    <person id="ped67" depart="265.25">
        <personTrip from="-23755739#1" to="23813203" modes="public"/>
    </person>
    <person id="ped68" depart="269.21">
        <personTrip from="-195397561#6" to="312651888#0" modes="public"/>
    </person>
    <person id="ped69" depart="273.16">
        <personTrip from="314433242" to="-326116285#1" modes="public"/>
    </person>
    <person id="ped70" depart="277.12">
        <personTrip from="237519482#0" to="254523883" modes="public"/>
    </person>
    <person id="ped71" depart="281.08">
        <personTrip from="143201759" to="47016365#1" modes="public"/>
    </person>
    <person id="ped72" depart="285.04">
        <personTrip from="202157021#0" to="111833185#1" modes="public"/>
    </person>
    <person id="ped73" depart="289.00">
        <personTrip from="254339591#1" to="310184349#0" modes="public"/>
    </person>
    <person id="ped74" depart="292.96">
        <personTrip from="104581979" to="170097526" modes="public"/>
    </person>
    <person id="ped75" depart="296.92">
        <personTrip from="88462861#1" to="272795494#0" modes="public"/>
    </person>
    <person id="ped76" depart="300.88">
        <personTrip from="222470308" to="24913524#0" modes="public"/>
    </person>
    <person id="ped77" depart="304.84">
        <personTrip from="-310176513#5" to="121717657#2" modes="public"/>
    </person>
    <person id="ped78" depart="308.79">
        <personTrip from="174759562" to="272757282" modes="public"/>
    </person>
    <person id="ped79" depart="312.75">
        <personTrip from="125438444" to="113595955#0" modes="public"/>
    </person>
    <person id="ped80" depart="316.71">
        <personTrip from="-196850606#2" to="272780741" modes="public"/>
    </person>
    <person id="ped81" depart="320.67">
        <personTrip from="123264596" to="51236793#1" modes="public"/>
    </person>
    <person id="ped82" depart="324.63">
        <personTrip from="4612973#1" to="-196850606#1" modes="public"/>
    </person>
    <person id="ped83" depart="328.59">
        <personTrip from="132460633#0" to="274513561" modes="public"/>
    </person>
    <person id="ped84" depart="332.55">
        <personTrip from="112128418#2" to="-33036326" modes="public"/>
    </person>
    <person id="ped85" depart="336.51">
        <personTrip from="61583424#2" to="262550692" modes="public"/>
    </person>
    <person id="ped86" depart="340.47">
        <personTrip from="237221897" to="327519010#1" modes="public"/>
    </person>
    <person id="ped87" depart="344.43">
        <personTrip from="42102542" to="-98008454" modes="public"/>
    </person>
    <person id="ped88" depart="348.38">
        <personTrip from="-24540240#0" to="202162471" modes="public"/>
    </person>
    <person id="ped89" depart="352.34">
        <personTrip from="202157022" to="23443935#2" modes="public"/>
    </person>
    <person id="ped90" depart="356.30">
        <personTrip from="310176513#6" to="274513575#1" modes="public"/>
    </person>
    <person id="ped91" depart="360.26">
        <personTrip from="88462833" to="-246011391#0" modes="public"/>
    </person>
    <person id="ped92" depart="364.22">
        <personTrip from="196850617" to="175499826" modes="public"/>
    </person>
    <person id="ped93" depart="368.18">
        <personTrip from="4613096#1" to="136571494#2" modes="public"/>
    </person>
    <person id="ped94" depart="372.14">
        <personTrip from="-98008451" to="229531158" modes="public"/>
    </person>
    <person id="ped95" depart="376.10">
        <personTrip from="202157018#1" to="159200257#3" modes="public"/>
    </person>
    <person id="ped96" depart="380.06">
        <personTrip from="137085410#1" to="59286182#3" modes="public"/>
    </person>
    <person id="ped97" depart="384.01">
        <personTrip from="225400602" to="4613096#0" modes="public"/>
    </person>
    <person id="ped98" depart="387.97">
        <personTrip from="254523885" to="-194073678#2" modes="public"/>
    </person>
    <person id="ped99" depart="391.93">
        <personTrip from="99226299#1" to="4610375#1" modes="public"/>
    </person>
    <person id="ped100" depart="395.89">
        <personTrip from="83517332#2" to="59286192#1" modes="public"/>
    </person>
    <person id="ped101" depart="399.85">
        <personTrip from="4611696#3" to="-4613096#1" modes="public"/>
    </person>
    <person id="ped102" depart="403.81">
        <personTrip from="23813201" to="112128418#1" modes="public"/>
    </person>
    <person id="ped103" depart="407.77">
        <personTrip from="196850612" to="-194962396#2" modes="public"/>
    </person>
    <person id="ped104" depart="411.73">
        <personTrip from="194962384" to="88462838" modes="public"/>
    </person>
    <person id="ped105" depart="415.69">
        <personTrip from="143201759" to="327519009#1" modes="public"/>
    </person>
    <person id="ped106" depart="419.64">
        <personTrip from="230015278" to="202157021#0" modes="public"/>
    </person>
    <person id="ped107" depart="423.60">
        <personTrip from="81112790#1" to="88462862" modes="public"/>
    </person>
    <person id="ped108" depart="427.56">
        <personTrip from="254523897" to="304987178#1" modes="public"/>
    </person>
    <person id="ped109" depart="431.52">
        <personTrip from="-4610607#1" to="168943639#0" modes="public"/>
    </person>
    <person id="ped110" depart="435.48">
        <personTrip from="83517332#1" to="272757258#4" modes="public"/>
    </person>
    <person id="ped111" depart="439.44">
        <personTrip from="254339599#0" to="312176582" modes="public"/>
    </person>
    <person id="ped112" depart="443.40">
        <personTrip from="-194962384" to="272757269" modes="public"/>
    </person>
    <person id="ped113" depart="447.36">
        <personTrip from="24243052#2" to="4611713#1" modes="public"/>
    </person>
    <person id="ped114" depart="451.32">
        <personTrip from="-4611690#1" to="82638369#2" modes="public"/>
    </person>
    <person id="ped115" depart="455.27">
        <personTrip from="-23129533" to="-8008608" modes="public"/>
    </person>
    <person id="ped116" depart="459.23">
        <personTrip from="272757304" to="274513579#2" modes="public"/>
    </person>
    <person id="ped117" depart="463.19">
        <personTrip from="131611527#2" to="-310176513#1" modes="public"/>
    </person>
    <person id="ped118" depart="467.15">
        <personTrip from="48536047" to="134021300#3" modes="public"/>
    </person>
    <person id="ped119" depart="471.11">
        <personTrip from="272757303" to="272757345#0" modes="public"/>
    </person>
    <person id="ped120" depart="475.07">
        <personTrip from="202157011" to="272757267" modes="public"/>
    </person>
    <person id="ped121" depart="479.03">
        <personTrip from="24992424#1" to="61583423#1" modes="public"/>
    </person>
    <person id="ped122" depart="482.99">
        <personTrip from="107747047#1" to="304348024" modes="public"/>
    </person>
    <person id="ped123" depart="486.95">
        <personTrip from="132600840#1" to="195411606" modes="public"/>
    </person>
    <person id="ped124" depart="490.90">
        <personTrip from="274513568#1" to="169195791#2" modes="public"/>
    </person>
    <person id="ped125" depart="494.86">
        <personTrip from="170852444" to="312392967#2" modes="public"/>
    </person>
    <person id="ped126" depart="498.82">
        <personTrip from="-202157003#1" to="230969739" modes="public"/>
    </person>
    <person id="ped127" depart="502.78">
        <personTrip from="98749939#6" to="98008454" modes="public"/>
    </person>
    <person id="ped128" depart="506.74">
        <personTrip from="-202157031#0" to="112128417#0" modes="public"/>
    </person>
    <person id="ped129" depart="510.70">
        <personTrip from="143201759" to="61579355" modes="public"/>
    </person>
    <person id="ped130" depart="514.66">
        <personTrip from="47986658#1" to="4790801" modes="public"/>
    </person>
    <person id="ped131" depart="518.62">
        <personTrip from="194069450#2" to="-4611696#1" modes="public"/>
    </person>
    <person id="ped132" depart="522.58">
        <personTrip from="4610362#3" to="288355301" modes="public"/>
    </person>
    <person id="ped133" depart="526.54">
        <personTrip from="272757336#1" to="88462842#11" modes="public"/>
    </person>
    <person id="ped134" depart="530.49">
        <personTrip from="272795500#1" to="-120675240#0" modes="public"/>
    </person>
    <person id="ped135" depart="534.45">
        <personTrip from="43239303#0" to="169195791#0" modes="public"/>
    </person>
    <person id="ped136" depart="538.41">
        <personTrip from="272810809#1" to="61670664#0" modes="public"/>
    </person>
    <person id="ped137" depart="542.37">
        <personTrip from="-34848160#0" to="-285825378#2" modes="public"/>
    </person>
    <person id="ped138" depart="546.33">
        <personTrip from="-26322535#1" to="254523893#0" modes="public"/>
    </person>
    <person id="ped139" depart="550.29">
        <personTrip from="153698402#0" to="272757325#1" modes="public"/>
    </person>
    <person id="ped140" depart="554.25">
        <personTrip from="304517627#1" to="107075620#0" modes="public"/>
    </person>
    <person id="ped141" depart="558.21">
        <personTrip from="272780747#1" to="143201755#1" modes="public"/>
    </person>
    <person id="ped142" depart="562.17">
        <personTrip from="23851917#0" to="51236793#0" modes="public"/>
    </person>
    <person id="ped143" depart="566.12">
        <personTrip from="4610610#0" to="-24242892#2" modes="public"/>
    </person>
    <person id="ped144" depart="570.08">
        <personTrip from="202157022" to="158023913#1" modes="public"/>
    </person>
    <person id="ped145" depart="574.04">
        <personTrip from="-109902441#0" to="31619760#0" modes="public"/>
    </person>
    <person id="ped146" depart="578.00">
        <personTrip from="272780752#0" to="138142366#2" modes="public"/>
    </person>
    <person id="ped147" depart="581.96">
        <personTrip from="311691564" to="254523889" modes="public"/>
    </person>
    <person id="ped148" depart="585.92">
        <personTrip from="202157027#2" to="-128396189#1" modes="public"/>
    </person>
    <person id="ped149" depart="589.88">
        <personTrip from="-222328410" to="48095588#1" modes="public"/>
    </person>
    <person id="ped150" depart="593.84">
        <personTrip from="51234181#2" to="254523869" modes="public"/>
    </person>
    <person id="ped151" depart="597.80">
        <personTrip from="4610362#6" to="272757264" modes="public"/>
    </person>
    <person id="ped152" depart="601.75">
        <personTrip from="-4588220" to="-32508516#0" modes="public"/>
    </person>
    <person id="ped153" depart="605.71">
        <personTrip from="170077662#3" to="51167928#3" modes="public"/>
    </person>
    <person id="ped154" depart="609.67">
        <personTrip from="33207312#1" to="4612976#0" modes="public"/>
    </person>
    <person id="ped155" depart="613.63">
        <personTrip from="51167928#3" to="110676321" modes="public"/>
    </person>
    <person id="ped156" depart="617.59">
        <personTrip from="136571494#6" to="-24993933#1" modes="public"/>
    </person>
    <person id="ped157" depart="621.55">
        <personTrip from="32508516#1" to="48164817#2" modes="public"/>
    </person>
    <person id="ped158" depart="625.51">
        <personTrip from="19798506#1" to="272757346#1" modes="public"/>
    </person>
    <person id="ped159" depart="629.47">
        <personTrip from="-4610607#0" to="59332212" modes="public"/>
    </person>
    <person id="ped160" depart="633.43">
        <personTrip from="4613299#0" to="88361597#10" modes="public"/>
    </person>
    <person id="ped161" depart="637.38">
        <personTrip from="43159545#0" to="47986661#1" modes="public"/>
    </person>
    <person id="ped162" depart="641.34">
        <personTrip from="-143201759" to="31112379" modes="public"/>
    </person>
    <person id="ped163" depart="645.30">
        <personTrip from="171829101#4" to="59334310#2" modes="public"/>
    </person>
    <person id="ped164" depart="649.26">
        <personTrip from="36892597#1" to="4613295#1" modes="public"/>
    </person>
    <person id="ped165" depart="653.22">
        <personTrip from="43159545#0" to="147066248" modes="public"/>
    </person>
    <person id="ped166" depart="657.18">
        <personTrip from="327519012#4" to="-263821578" modes="public"/>
    </person>
    <person id="ped167" depart="661.14">
        <personTrip from="46983896" to="4612971" modes="public"/>
    </person>
    <person id="ped168" depart="665.10">
        <personTrip from="114133914#2" to="43233756" modes="public"/>
    </person>
    <person id="ped169" depart="669.06">
        <personTrip from="23121445#4" to="169660686#1" modes="public"/>
    </person>
    <person id="ped170" depart="673.01">
        <personTrip from="330965609" to="123074181#2" modes="public"/>
    </person>
    <person id="ped171" depart="676.97">
        <personTrip from="-143201752" to="-98749939#6" modes="public"/>
    </person>
    <person id="ped172" depart="680.93">
        <personTrip from="171829093" to="4613298" modes="public"/>
    </person>
    <person id="ped173" depart="684.89">
        <personTrip from="82659291#0" to="159200257#5" modes="public"/>
    </person>
    <person id="ped174" depart="688.85">
        <personTrip from="272780760#0" to="196850608#2" modes="public"/>
    </person>
    <person id="ped175" depart="692.81">
        <personTrip from="88361628" to="254339583" modes="public"/>
    </person>
    <person id="ped176" depart="696.77">
        <personTrip from="61670664#1" to="-285825378#2" modes="public"/>
    </person>
    <person id="ped177" depart="700.73">
        <personTrip from="83517336#3" to="-55741054" modes="public"/>
    </person>
    <person id="ped178" depart="704.69">
        <personTrip from="82652816#0" to="143201760" modes="public"/>
    </person>
    <person id="ped179" depart="708.64">
        <personTrip from="-268002745" to="204032443#1" modes="public"/>
    </person>
    <person id="ped180" depart="712.60">
        <personTrip from="310176513#4" to="170302413" modes="public"/>
    </person>
    <person id="ped181" depart="716.56">
        <personTrip from="272757328#1" to="24540240#3" modes="public"/>
    </person>
    <person id="ped182" depart="720.52">
        <personTrip from="195088659" to="268002748#0" modes="public"/>
    </person>
    <person id="ped183" depart="724.48">
        <personTrip from="137085425" to="292958630#0" modes="public"/>
    </person>
    <person id="ped184" depart="728.44">
        <personTrip from="-104991251" to="59286190#1" modes="public"/>
    </person>
    <person id="ped185" depart="732.40">
        <personTrip from="254339590#0" to="305093247#2" modes="public"/>
    </person>
    <person id="ped186" depart="736.36">
        <personTrip from="311974266" to="274513566#0" modes="public"/>
    </person>
    <person id="ped187" depart="740.32">
        <personTrip from="18997847#0" to="-196850605" modes="public"/>
    </person>
    <person id="ped188" depart="744.28">
        <personTrip from="272810811#0" to="171829099#4" modes="public"/>
    </person>
    <person id="ped189" depart="748.23">
        <personTrip from="170370361#0" to="4611690#2" modes="public"/>
    </person>
    <person id="ped190" depart="752.19">
        <personTrip from="305093328#1" to="169195791#3" modes="public"/>
    </person>
    <person id="ped191" depart="756.15">
        <personTrip from="170077663" to="19801618#1" modes="public"/>
    </person>
    <person id="ped192" depart="760.11">
        <personTrip from="196850617" to="168937986#3" modes="public"/>
    </person>
    <person id="ped193" depart="764.07">
        <personTrip from="-32508516#0" to="202157015" modes="public"/>
    </person>
    <person id="ped194" depart="768.03">
        <personTrip from="6227654#0" to="274524363" modes="public"/>
    </person>
    <person id="ped195" depart="771.99">
        <personTrip from="51234180#1" to="272757340#1" modes="public"/>
    </person>
    <person id="ped196" depart="775.95">
        <personTrip from="169195795#1" to="254523876" modes="public"/>
    </person>
    <person id="ped197" depart="779.91">
        <personTrip from="-100944802#1" to="164039095#2" modes="public"/>
    </person>
    <person id="ped198" depart="783.86">
        <personTrip from="202157030#1" to="272757258#7" modes="public"/>
    </person>
    <person id="ped199" depart="787.82">
        <personTrip from="272795501#1" to="23386522#0" modes="public"/>
    </person>
    <person id="ped200" depart="791.78">
        <personTrip from="225400596" to="112128418#1" modes="public"/>
    </person>
    <person id="ped201" depart="795.74">
        <personTrip from="237314768" to="51167934#1" modes="public"/>
    </person>
    <person id="ped202" depart="799.70">
        <personTrip from="33207312#1" to="-4615548" modes="public"/>
    </person>
    <person id="ped203" depart="803.66">
        <personTrip from="-237206973#3" to="24913297" modes="public"/>
    </person>
    <person id="ped204" depart="807.62">
        <personTrip from="272780745#0" to="173194677#0" modes="public"/>
    </person>
    <person id="ped205" depart="811.58">
        <personTrip from="43270574#1" to="312392966#4" modes="public"/>
    </person>
    <person id="ped206" depart="815.54">
        <personTrip from="274513573#1" to="121717657#2" modes="public"/>
    </person>
    <person id="ped207" depart="819.49">
        <personTrip from="103359348" to="-143201755#2" modes="public"/>
    </person>
    <person id="ped208" depart="823.45">
        <personTrip from="133957852" to="237517878#1" modes="public"/>
    </person>
    <person id="ped209" depart="827.41">
        <personTrip from="4611699" to="-202157012" modes="public"/>
    </person>
    <person id="ped210" depart="831.37">
        <personTrip from="202156995#1" to="272780737" modes="public"/>
    </person>
    <person id="ped211" depart="835.33">
        <personTrip from="-99226301#1" to="28251484#1" modes="public"/>
    </person>
    <person id="ped212" depart="839.29">
        <personTrip from="23852049#1" to="133895404" modes="public"/>
    </person>
    <person id="ped213" depart="843.25">
        <personTrip from="272795502#1" to="-111251382#0" modes="public"/>
    </person>
    <person id="ped214" depart="847.21">
        <personTrip from="312392966#4" to="316092515" modes="public"/>
    </person>
    <person id="ped215" depart="851.17">
        <personTrip from="-262550692" to="202157025#0" modes="public"/>
    </person>
    <person id="ped216" depart="855.12">
        <personTrip from="-51912365#1" to="82165084" modes="public"/>
    </person>
    <person id="ped217" depart="859.08">
        <personTrip from="24913524#1" to="-194073678#1" modes="public"/>
    </person>
    <person id="ped218" depart="863.04">
        <personTrip from="136571494#4" to="4611696#0" modes="public"/>
    </person>
    <person id="ped219" depart="867.00">
        <personTrip from="230015282#0" to="35578559" modes="public"/>
    </person>
    <person id="ped220" depart="870.96">
        <personTrip from="274513552" to="88462842#13" modes="public"/>
    </person>
    <person id="ped221" depart="874.92">
        <personTrip from="272757306" to="72260322" modes="public"/>
    </person>
    <person id="ped222" depart="878.88">
        <personTrip from="48664717#1" to="272757337#1" modes="public"/>
    </person>
    <person id="ped223" depart="882.84">
        <personTrip from="305093247#2" to="24243107#0" modes="public"/>
    </person>
    <person id="ped224" depart="886.80">
        <personTrip from="4610354#0" to="254523876" modes="public"/>
    </person>
    <person id="ped225" depart="890.75">
        <personTrip from="51167927#3" to="312125717#1" modes="public"/>
    </person>
    <person id="ped226" depart="894.71">
        <personTrip from="237517878#0" to="137630046" modes="public"/>
    </person>
    <person id="ped227" depart="898.67">
        <personTrip from="136003366#0" to="272780753" modes="public"/>
    </person>
</routes>
