<?xml version="1.0" encoding="UTF-8"?>
<!-- generated on 2022-05-13 12:18:57.927820 by osmWebWizard.py v1_13_0+0234-b8e58c6a531
<configuration>
    <additional-files value="/home/kobo/.texttest/tmp/tools.13May121823.1673112/tools/import/OSM/webWizard/test/osm_stops.add.xml,/home/kobo/.texttest/tmp/tools.13May121823.1673112/tools/import/OSM/webWizard/test/osm_pt.rou.xml"/>
    <end value="900"/>
    <net-file value="/home/kobo/.texttest/tmp/tools.13May121823.1673112/tools/import/OSM/webWizard/test/osm.net.xml"/>
    <period value="4.765595198482757"/>
    <persontrips value="True"/>
    <route-file value="/home/kobo/.texttest/tmp/tools.13May121823.1673112/tools/import/OSM/webWizard/test/osm.pedestrian.rou.xml"/>
    <trip-attributes value="modes=&quot;public&quot;"/>
    <output-trip-file value="/home/kobo/.texttest/tmp/tools.13May121823.1673112/tools/import/OSM/webWizard/test/osm.pedestrian.trips.xml"/>
    <prefix value="ped"/>
    <vehicle-class value="pedestrian"/>
    <persontrip.walk-opposite-factor value="0.8"/>
</configuration>

-->
<routes xmlns:xsi="http://www.w3.org/2001/XMLSchema-instance" xsi:noNamespaceSchemaLocation="http://sumo.dlr.de/xsd/routes_file.xsd">
    <vType id="ped_pedestrian" vClass="pedestrian"/>
    <person id="ped0" depart="0.00" type="ped_pedestrian">
        <personTrip from="335576646#0" to="-153692976#0" modes="public"/>
    </person>
    <person id="ped1" depart="4.77" type="ped_pedestrian">
        <personTrip from="159482052#0" to="107747047#3" modes="public"/>
    </person>
    <person id="ped2" depart="9.53" type="ped_pedestrian">
        <personTrip from="384309028" to="346212658" modes="public"/>
    </person>
    <person id="ped3" depart="14.30" type="ped_pedestrian">
        <personTrip from="51167561#1" to="-24993933#1" modes="public"/>
    </person>
    <person id="ped4" depart="19.06" type="ped_pedestrian">
        <personTrip from="23851927#1" to="-15973619#0" modes="public"/>
    </person>
    <person id="ped5" depart="23.83" type="ped_pedestrian">
        <personTrip from="104567844" to="272757337#2" modes="public"/>
    </person>
    <person id="ped6" depart="28.59" type="ped_pedestrian">
        <personTrip from="-153698402" to="-574993713#2" modes="public"/>
    </person>
    <person id="ped7" depart="33.36" type="ped_pedestrian">
        <personTrip from="339201192#0" to="274513545" modes="public"/>
    </person>
    <person id="ped8" depart="38.12" type="ped_pedestrian">
        <personTrip from="104984532" to="309848027#1" modes="public"/>
    </person>
    <person id="ped9" depart="42.89" type="ped_pedestrian">
        <personTrip from="4610354" to="-122820534#0" modes="public"/>
    </person>
    <person id="ped10" depart="47.66" type="ped_pedestrian">
        <personTrip from="4570580" to="373866703#1" modes="public"/>
    </person>
    <person id="ped11" depart="52.42" type="ped_pedestrian">
        <personTrip from="194177692#0" to="-4610472#0" modes="public"/>
    </person>
    <person id="ped12" depart="57.19" type="ped_pedestrian">
        <personTrip from="58881955" to="19002403#1" modes="public"/>
    </person>
    <person id="ped13" depart="61.95" type="ped_pedestrian">
        <personTrip from="-285825378#1" to="-304987178#1" modes="public"/>
    </person>
    <person id="ped14" depart="66.72" type="ped_pedestrian">
        <personTrip from="465376240" to="312392972#0" modes="public"/>
    </person>
    <person id="ped15" depart="71.48" type="ped_pedestrian">
        <personTrip from="4588219#0" to="379904843#5" modes="public"/>
    </person>
    <person id="ped16" depart="76.25" type="ped_pedestrian">
        <personTrip from="272795498#1" to="61583424#1" modes="public"/>
    </person>
    <person id="ped17" depart="81.02" type="ped_pedestrian">
        <personTrip from="202157029#2" to="274524364#0" modes="public"/>
    </person>
    <person id="ped18" depart="85.78" type="ped_pedestrian">
        <personTrip from="4612961#1" to="31959081#0" modes="public"/>
    </person>
    <person id="ped19" depart="90.55" type="ped_pedestrian">
        <personTrip from="474154190#0" to="301440368" modes="public"/>
    </person>
    <person id="ped20" depart="95.31" type="ped_pedestrian">
        <personTrip from="374734396#2" to="-19002363#4" modes="public"/>
    </person>
    <person id="ped21" depart="100.08" type="ped_pedestrian">
        <personTrip from="112128417" to="168937986#4" modes="public"/>
    </person>
    <person id="ped22" depart="104.84" type="ped_pedestrian">
        <personTrip from="-24241790#2" to="113595955#0" modes="public"/>
    </person>
    <person id="ped23" depart="109.61" type="ped_pedestrian">
        <personTrip from="-310176513#1" to="15971196#1" modes="public"/>
    </person>
    <person id="ped24" depart="114.37" type="ped_pedestrian">
        <personTrip from="335043665#0" to="202156998#2" modes="public"/>
    </person>
    <person id="ped25" depart="119.14" type="ped_pedestrian">
        <personTrip from="202157015" to="-72157169#0" modes="public"/>
    </person>
    <person id="ped26" depart="123.91" type="ped_pedestrian">
        <personTrip from="153692976#0" to="561333203" modes="public"/>
    </person>
    <person id="ped27" depart="128.67" type="ped_pedestrian">
        <personTrip from="337147278" to="312651888#1" modes="public"/>
    </person>
    <person id="ped28" depart="133.44" type="ped_pedestrian">
        <personTrip from="-461526153" to="379904843#2" modes="public"/>
    </person>
    <person id="ped29" depart="138.20" type="ped_pedestrian">
        <personTrip from="-4611706#0" to="202157031#1" modes="public"/>
    </person>
    <person id="ped30" depart="142.97" type="ped_pedestrian">
        <personTrip from="76865764#3" to="335576646#2" modes="public"/>
    </person>
    <person id="ped31" depart="147.73" type="ped_pedestrian">
        <personTrip from="274524381#0" to="346229516#2" modes="public"/>
    </person>
    <person id="ped32" depart="152.50" type="ped_pedestrian">
        <personTrip from="463898980#6" to="43185698" modes="public"/>
    </person>
    <person id="ped33" depart="157.26" type="ped_pedestrian">
        <personTrip from="112128418#5" to="-164874303" modes="public"/>
    </person>
    <person id="ped34" depart="162.03" type="ped_pedestrian">
        <personTrip from="171826987#4" to="153698390#1" modes="public"/>
    </person>
    <person id="ped35" depart="166.80" type="ped_pedestrian">
        <personTrip from="-8008608" to="566155001" modes="public"/>
    </person>
    <person id="ped36" depart="171.56" type="ped_pedestrian">
        <personTrip from="483624520" to="171826987#0" modes="public"/>
    </person>
    <person id="ped37" depart="176.33" type="ped_pedestrian">
        <personTrip from="340498976#5" to="22954356#0" modes="public"/>
    </person>
    <person id="ped38" depart="181.09" type="ped_pedestrian">
        <personTrip from="523633033" to="254523883" modes="public"/>
    </person>
    <person id="ped39" depart="185.86" type="ped_pedestrian">
        <personTrip from="147066248#3" to="133885749#3" modes="public"/>
    </person>
    <person id="ped40" depart="190.62" type="ped_pedestrian">
        <personTrip from="280007139#1" to="137630051#0" modes="public"/>
    </person>
    <person id="ped41" depart="195.39" type="ped_pedestrian">
        <personTrip from="30720544#0" to="51167932#0" modes="public"/>
    </person>
    <person id="ped42" depart="200.15" type="ped_pedestrian">
        <personTrip from="230015280" to="104786912#0" modes="public"/>
    </person>
    <person id="ped43" depart="204.92" type="ped_pedestrian">
        <personTrip from="82659291#2" to="272757343#0" modes="public"/>
    </person>
    <person id="ped44" depart="209.69" type="ped_pedestrian">
        <personTrip from="-28258879#1" to="-194073676" modes="public"/>
    </person>
    <person id="ped45" depart="214.45" type="ped_pedestrian">
        <personTrip from="-320454752" to="327519012#4" modes="public"/>
    </person>
    <person id="ped46" depart="219.22" type="ped_pedestrian">
        <personTrip from="440946427" to="23851927#2" modes="public"/>
    </person>
    <person id="ped47" depart="223.98" type="ped_pedestrian">
        <personTrip from="-225400606#0" to="202162475" modes="public"/>
    </person>
    <person id="ped48" depart="228.75" type="ped_pedestrian">
        <personTrip from="82658674#2" to="272795480" modes="public"/>
    </person>
    <person id="ped49" depart="233.51" type="ped_pedestrian">
        <personTrip from="607001337" to="473149642" modes="public"/>
    </person>
    <person id="ped50" depart="238.28" type="ped_pedestrian">
        <personTrip from="-133885745#0" to="377634148#1" modes="public"/>
    </person>
    <person id="ped51" depart="243.05" type="ped_pedestrian">
        <personTrip from="346213313#1" to="272795500#2" modes="public"/>
    </person>
    <person id="ped52" depart="247.81" type="ped_pedestrian">
        <personTrip from="153692976#0" to="335576648#0" modes="public"/>
    </person>
    <person id="ped53" depart="252.58" type="ped_pedestrian">
        <personTrip from="-326116285#2" to="24273323#0" modes="public"/>
    </person>
    <person id="ped54" depart="257.34" type="ped_pedestrian">
        <personTrip from="254339592#0" to="576310031" modes="public"/>
    </person>
    <person id="ped55" depart="262.11" type="ped_pedestrian">
        <personTrip from="482809615" to="137630051#2" modes="public"/>
    </person>
    <person id="ped56" depart="266.87" type="ped_pedestrian">
        <personTrip from="272757328#1" to="-51167927#0" modes="public"/>
    </person>
    <person id="ped57" depart="271.64" type="ped_pedestrian">
        <personTrip from="52349369#1" to="47986659" modes="public"/>
    </person>
    <person id="ped58" depart="276.40" type="ped_pedestrian">
        <personTrip from="169999355" to="335576644#1" modes="public"/>
    </person>
    <person id="ped59" depart="281.17" type="ped_pedestrian">
        <personTrip from="312651888#1" to="-4610362#0" modes="public"/>
    </person>
    <person id="ped60" depart="285.94" type="ped_pedestrian">
        <personTrip from="422000253#2" to="272795503#0" modes="public"/>
    </person>
    <person id="ped61" depart="290.70" type="ped_pedestrian">
        <personTrip from="43230873#0" to="272795486" modes="public"/>
    </person>
    <person id="ped62" depart="295.47" type="ped_pedestrian">
        <personTrip from="-100950875#2" to="175499833#3" modes="public"/>
    </person>
    <person id="ped63" depart="300.23" type="ped_pedestrian">
        <personTrip from="-137085417" to="553121566#0" modes="public"/>
    </person>
    <person id="ped64" depart="305.00" type="ped_pedestrian">
        <personTrip from="483624527" to="4612968#3" modes="public"/>
    </person>
    <person id="ped65" depart="309.76" type="ped_pedestrian">
        <personTrip from="170852441" to="-19798506#0" modes="public"/>
    </person>
    <person id="ped66" depart="314.53" type="ped_pedestrian">
        <personTrip from="483624525" to="569067828" modes="public"/>
    </person>
    <person id="ped67" depart="319.29" type="ped_pedestrian">
        <personTrip from="-24913267#2" to="272757280" modes="public"/>
    </person>
    <person id="ped68" depart="324.06" type="ped_pedestrian">
        <personTrip from="-23230845#1" to="412936098" modes="public"/>
    </person>
    <person id="ped69" depart="328.83" type="ped_pedestrian">
        <personTrip from="424344289" to="-380240681#0" modes="public"/>
    </person>
    <person id="ped70" depart="333.59" type="ped_pedestrian">
        <personTrip from="26733828#1" to="274513577#1" modes="public"/>
    </person>
    <person id="ped71" depart="338.36" type="ped_pedestrian">
        <personTrip from="147066248#4" to="47986664#3" modes="public"/>
    </person>
    <person id="ped72" depart="343.12" type="ped_pedestrian">
        <personTrip from="23852032" to="-82658674#1" modes="public"/>
    </person>
    <person id="ped73" depart="347.89" type="ped_pedestrian">
        <personTrip from="272795503#0" to="379904843#6" modes="public"/>
    </person>
    <person id="ped74" depart="352.65" type="ped_pedestrian">
        <personTrip from="-577274547" to="171826984#2" modes="public"/>
    </person>
    <person id="ped75" depart="357.42" type="ped_pedestrian">
        <personTrip from="82654055#0" to="339201192#0" modes="public"/>
    </person>
    <person id="ped76" depart="362.19" type="ped_pedestrian">
        <personTrip from="24509315#0" to="272780732" modes="public"/>
    </person>
    <person id="ped77" depart="366.95" type="ped_pedestrian">
        <personTrip from="-345088426" to="109819341#1" modes="public"/>
    </person>
    <person id="ped78" depart="371.72" type="ped_pedestrian">
        <personTrip from="194069450#0" to="309147331#0" modes="public"/>
    </person>
    <person id="ped79" depart="376.48" type="ped_pedestrian">
        <personTrip from="112128421" to="104786912#3" modes="public"/>
    </person>
    <person id="ped80" depart="381.25" type="ped_pedestrian">
        <personTrip from="-23443935#1" to="330840132" modes="public"/>
    </person>
    <person id="ped81" depart="386.01" type="ped_pedestrian">
        <personTrip from="112128418#5" to="518508124#2" modes="public"/>
    </person>
    <person id="ped82" depart="390.78" type="ped_pedestrian">
        <personTrip from="473149638#2" to="-23443935#0" modes="public"/>
    </person>
    <person id="ped83" depart="395.54" type="ped_pedestrian">
        <personTrip from="122820536" to="346206368#6" modes="public"/>
    </person>
    <person id="ped84" depart="400.31" type="ped_pedestrian">
        <personTrip from="100113531#0" to="-409506038#2" modes="public"/>
    </person>
    <person id="ped85" depart="405.08" type="ped_pedestrian">
        <personTrip from="558867477" to="289830408" modes="public"/>
    </person>
    <person id="ped86" depart="409.84" type="ped_pedestrian">
        <personTrip from="263821578" to="437499013" modes="public"/>
    </person>
    <person id="ped87" depart="414.61" type="ped_pedestrian">
        <personTrip from="4588219#1" to="-546927052" modes="public"/>
    </person>
    <person id="ped88" depart="419.37" type="ped_pedestrian">
        <personTrip from="-305153173" to="24242892#2" modes="public"/>
    </person>
    <person id="ped89" depart="424.14" type="ped_pedestrian">
        <personTrip from="23852035#1" to="25959593" modes="public"/>
    </person>
    <person id="ped90" depart="428.90" type="ped_pedestrian">
        <personTrip from="379904843#2" to="346206389#2" modes="public"/>
    </person>
    <person id="ped91" depart="433.67" type="ped_pedestrian">
        <personTrip from="72157169#0" to="-30721660#1" modes="public"/>
    </person>
    <person id="ped92" depart="438.43" type="ped_pedestrian">
        <personTrip from="230969741#1" to="194073677#1" modes="public"/>
    </person>
    <person id="ped93" depart="443.20" type="ped_pedestrian">
        <personTrip from="474154190#0" to="133957851" modes="public"/>
    </person>
    <person id="ped94" depart="447.97" type="ped_pedestrian">
        <personTrip from="-546927052" to="254339581#0" modes="public"/>
    </person>
    <person id="ped95" depart="452.73" type="ped_pedestrian">
        <personTrip from="23851927#1" to="15973619#0" modes="public"/>
    </person>
    <person id="ped96" depart="457.50" type="ped_pedestrian">
        <personTrip from="134021300#2" to="541864428#0" modes="public"/>
    </person>
    <person id="ped97" depart="462.26" type="ped_pedestrian">
        <personTrip from="24992424#0" to="473149644" modes="public"/>
    </person>
    <person id="ped98" depart="467.03" type="ped_pedestrian">
        <personTrip from="274513581#1" to="-194177700#2" modes="public"/>
    </person>
    <person id="ped99" depart="471.79" type="ped_pedestrian">
        <personTrip from="83517339" to="4613308#2" modes="public"/>
    </person>
    <person id="ped100" depart="476.56" type="ped_pedestrian">
        <personTrip from="60333313" to="54618192#2" modes="public"/>
    </person>
    <person id="ped101" depart="481.33" type="ped_pedestrian">
        <personTrip from="465376244#0" to="-4612427#1" modes="public"/>
    </person>
    <person id="ped102" depart="486.09" type="ped_pedestrian">
        <personTrip from="272757279" to="-84960597#0" modes="public"/>
    </person>
    <person id="ped103" depart="490.86" type="ped_pedestrian">
        <personTrip from="23013165#0" to="-202156991#0" modes="public"/>
    </person>
    <person id="ped104" depart="495.62" type="ped_pedestrian">
        <personTrip from="202157030#0" to="72157174#1" modes="public"/>
    </person>
    <person id="ped105" depart="500.39" type="ped_pedestrian">
        <personTrip from="147066248#4" to="437499008" modes="public"/>
    </person>
    <person id="ped106" depart="505.15" type="ped_pedestrian">
        <personTrip from="254341208" to="23852032" modes="public"/>
    </person>
    <person id="ped107" depart="509.92" type="ped_pedestrian">
        <personTrip from="588960601" to="82654055#1" modes="public"/>
    </person>
    <person id="ped108" depart="514.68" type="ped_pedestrian">
        <personTrip from="274524378" to="377634142" modes="public"/>
    </person>
    <person id="ped109" depart="519.45" type="ped_pedestrian">
        <personTrip from="-4610362#8" to="169230291#2" modes="public"/>
    </person>
    <person id="ped110" depart="524.22" type="ped_pedestrian">
        <personTrip from="60333311#2" to="304514893#2" modes="public"/>
    </person>
    <person id="ped111" depart="528.98" type="ped_pedestrian">
        <personTrip from="272810806" to="389102304" modes="public"/>
    </person>
    <person id="ped112" depart="533.75" type="ped_pedestrian">
        <personTrip from="-195397561#2" to="305610351" modes="public"/>
    </person>
    <person id="ped113" depart="538.51" type="ped_pedestrian">
        <personTrip from="272757334#1" to="465376259#1" modes="public"/>
    </person>
    <person id="ped114" depart="543.28" type="ped_pedestrian">
        <personTrip from="-4610480" to="59286185#1" modes="public"/>
    </person>
    <person id="ped115" depart="548.04" type="ped_pedestrian">
        <personTrip from="-24242882#0" to="-515998815" modes="public"/>
    </person>
    <person id="ped116" depart="552.81" type="ped_pedestrian">
        <personTrip from="31112379#1" to="346212656#4" modes="public"/>
    </person>
    <person id="ped117" depart="557.57" type="ped_pedestrian">
        <personTrip from="11483007" to="-344595607#0" modes="public"/>
    </person>
    <person id="ped118" depart="562.34" type="ped_pedestrian">
        <personTrip from="505475202#0" to="133885749#1" modes="public"/>
    </person>
    <person id="ped119" depart="567.11" type="ped_pedestrian">
        <personTrip from="310548395" to="31959084" modes="public"/>
    </person>
    <person id="ped120" depart="571.87" type="ped_pedestrian">
        <personTrip from="23851897#1" to="305153173" modes="public"/>
    </person>
    <person id="ped121" depart="576.64" type="ped_pedestrian">
        <personTrip from="272780749#0" to="557076776#0" modes="public"/>
    </person>
    <person id="ped122" depart="581.40" type="ped_pedestrian">
        <personTrip from="-6228081" to="377494315" modes="public"/>
    </person>
    <person id="ped123" depart="586.17" type="ped_pedestrian">
        <personTrip from="125438444" to="22954356#1" modes="public"/>
    </person>
    <person id="ped124" depart="590.93" type="ped_pedestrian">
        <personTrip from="346206381#0" to="170077662#2" modes="public"/>
    </person>
    <person id="ped125" depart="595.70" type="ped_pedestrian">
        <personTrip from="171829092" to="397579542" modes="public"/>
    </person>
    <person id="ped126" depart="600.46" type="ped_pedestrian">
        <personTrip from="-23809670#3" to="254523879" modes="public"/>
    </person>
    <person id="ped127" depart="605.23" type="ped_pedestrian">
        <personTrip from="83517334#1" to="82658674#2" modes="public"/>
    </person>
    <person id="ped128" depart="610.00" type="ped_pedestrian">
        <personTrip from="-23809677" to="-83517336#0" modes="public"/>
    </person>
    <person id="ped129" depart="614.76" type="ped_pedestrian">
        <personTrip from="147066248#4" to="557076770#1" modes="public"/>
    </person>
    <person id="ped130" depart="619.53" type="ped_pedestrian">
        <personTrip from="48435250" to="4840974#0" modes="public"/>
    </person>
    <person id="ped131" depart="624.29" type="ped_pedestrian">
        <personTrip from="202157014#0" to="-4610525#0" modes="public"/>
    </person>
    <person id="ped132" depart="629.06" type="ped_pedestrian">
        <personTrip from="4612973#1" to="374734394#8" modes="public"/>
    </person>
    <person id="ped133" depart="633.82" type="ped_pedestrian">
        <personTrip from="313193879#1" to="72463266#1" modes="public"/>
    </person>
    <person id="ped134" depart="638.59" type="ped_pedestrian">
        <personTrip from="339201248" to="-128396190#1" modes="public"/>
    </person>
    <person id="ped135" depart="643.36" type="ped_pedestrian">
        <personTrip from="4610526" to="170077662#0" modes="public"/>
    </person>
    <person id="ped136" depart="648.12" type="ped_pedestrian">
        <personTrip from="344595608#0" to="564139999#4" modes="public"/>
    </person>
    <person id="ped137" depart="652.89" type="ped_pedestrian">
        <personTrip from="-410310755#5" to="-339201177#2" modes="public"/>
    </person>
    <person id="ped138" depart="657.65" type="ped_pedestrian">
        <personTrip from="-314433242" to="274524370" modes="public"/>
    </person>
    <person id="ped139" depart="662.42" type="ped_pedestrian">
        <personTrip from="158023913#2" to="312392975#0" modes="public"/>
    </person>
    <person id="ped140" depart="667.18" type="ped_pedestrian">
        <personTrip from="377634139" to="-6227658#1" modes="public"/>
    </person>
    <person id="ped141" depart="671.95" type="ped_pedestrian">
        <personTrip from="335043657" to="147066248#0" modes="public"/>
    </person>
    <person id="ped142" depart="676.71" type="ped_pedestrian">
        <personTrip from="272757292" to="518508124#2" modes="public"/>
    </person>
    <person id="ped143" depart="681.48" type="ped_pedestrian">
        <personTrip from="465218213" to="-285825378#0" modes="public"/>
    </person>
    <person id="ped144" depart="686.25" type="ped_pedestrian">
        <personTrip from="23852035#1" to="15968749#2" modes="public"/>
    </person>
    <person id="ped145" depart="691.01" type="ped_pedestrian">
        <personTrip from="-111833185#0" to="428486925" modes="public"/>
    </person>
    <person id="ped146" depart="695.78" type="ped_pedestrian">
        <personTrip from="335043668#1" to="137630048" modes="public"/>
    </person>
    <person id="ped147" depart="700.54" type="ped_pedestrian">
        <personTrip from="388702039#6" to="274524361#2" modes="public"/>
    </person>
    <person id="ped148" depart="705.31" type="ped_pedestrian">
        <personTrip from="23852049#1" to="-132460631#0" modes="public"/>
    </person>
    <person id="ped149" depart="710.07" type="ped_pedestrian">
        <personTrip from="-23852041#0" to="48524801#1" modes="public"/>
    </person>
    <person id="ped150" depart="714.84" type="ped_pedestrian">
        <personTrip from="518508119#1" to="274513551" modes="public"/>
    </person>
    <person id="ped151" depart="719.60" type="ped_pedestrian">
        <personTrip from="4613292#0" to="304987178#1" modes="public"/>
    </person>
    <person id="ped152" depart="724.37" type="ped_pedestrian">
        <personTrip from="-4588217#0" to="-375716659" modes="public"/>
    </person>
    <person id="ped153" depart="729.14" type="ped_pedestrian">
        <personTrip from="170852451" to="51167934#0" modes="public"/>
    </person>
    <person id="ped154" depart="733.90" type="ped_pedestrian">
        <personTrip from="442577412#2" to="473149642" modes="public"/>
    </person>
    <person id="ped155" depart="738.67" type="ped_pedestrian">
        <personTrip from="51167933" to="-72678525" modes="public"/>
    </person>
    <person id="ped156" depart="743.43" type="ped_pedestrian">
        <personTrip from="134021300#1" to="-310177222#1" modes="public"/>
    </person>
    <person id="ped157" depart="748.20" type="ped_pedestrian">
        <personTrip from="43233756" to="48664687#0" modes="public"/>
    </person>
    <person id="ped158" depart="752.96" type="ped_pedestrian">
        <personTrip from="23294727" to="320454751" modes="public"/>
    </person>
    <person id="ped159" depart="757.73" type="ped_pedestrian">
        <personTrip from="-4610362#7" to="553121566#3" modes="public"/>
    </person>
    <person id="ped160" depart="762.50" type="ped_pedestrian">
        <personTrip from="4773023#0" to="61670659" modes="public"/>
    </person>
    <person id="ped161" depart="767.26" type="ped_pedestrian">
        <personTrip from="4610361" to="48435394" modes="public"/>
    </person>
    <person id="ped162" depart="772.03" type="ped_pedestrian">
        <personTrip from="-153692976#0" to="384309028" modes="public"/>
    </person>
    <person id="ped163" depart="776.79" type="ped_pedestrian">
        <personTrip from="181587285" to="553649891#1" modes="public"/>
    </person>
    <person id="ped164" depart="781.56" type="ped_pedestrian">
        <personTrip from="449982384#0" to="475297968#0" modes="public"/>
    </person>
    <person id="ped165" depart="786.32" type="ped_pedestrian">
        <personTrip from="4610361" to="153692976#0" modes="public"/>
    </person>
    <person id="ped166" depart="791.09" type="ped_pedestrian">
        <personTrip from="437500504#1" to="-318915601#1" modes="public"/>
    </person>
    <person id="ped167" depart="795.85" type="ped_pedestrian">
        <personTrip from="47986664#2" to="473149636" modes="public"/>
    </person>
    <person id="ped168" depart="800.62" type="ped_pedestrian">
        <personTrip from="107075620#1" to="4610525#0" modes="public"/>
    </person>
    <person id="ped169" depart="805.39" type="ped_pedestrian">
        <personTrip from="254523890#0" to="170302412#1" modes="public"/>
    </person>
    <person id="ped170" depart="810.15" type="ped_pedestrian">
        <personTrip from="442409737" to="111833186#2" modes="public"/>
    </person>
    <person id="ped171" depart="814.92" type="ped_pedestrian">
        <personTrip from="-147066248#5" to="-554949051#2" modes="public"/>
    </person>
    <person id="ped172" depart="819.68" type="ped_pedestrian">
        <personTrip from="175885747#4" to="475297968#1" modes="public"/>
    </person>
    <person id="ped173" depart="824.45" type="ped_pedestrian">
        <personTrip from="59334310#5" to="15973619#2" modes="public"/>
    </person>
    <person id="ped174" depart="829.21" type="ped_pedestrian">
        <personTrip from="335576650#0" to="230015281" modes="public"/>
    </person>
    <person id="ped175" depart="833.98" type="ped_pedestrian">
        <personTrip from="68647306#2" to="272795498#1" modes="public"/>
    </person>
    <person id="ped176" depart="838.74" type="ped_pedestrian">
        <personTrip from="564139999#5" to="-339201177#2" modes="public"/>
    </person>
    <person id="ped177" depart="843.51" type="ped_pedestrian">
        <personTrip from="606078071#0" to="-51167927#0" modes="public"/>
    </person>
    <person id="ped178" depart="848.28" type="ped_pedestrian">
        <personTrip from="59286194#2" to="147066248#5" modes="public"/>
    </person>
    <person id="ped179" depart="853.04" type="ped_pedestrian">
        <personTrip from="-31959086#0" to="24243107#2" modes="public"/>
    </person>
    <person id="ped180" depart="857.81" type="ped_pedestrian">
        <personTrip from="379904843#0" to="171826985#3" modes="public"/>
    </person>
    <person id="ped181" depart="862.57" type="ped_pedestrian">
        <personTrip from="312392977#1" to="272757346#0" modes="public"/>
    </person>
    <person id="ped182" depart="867.34" type="ped_pedestrian">
        <personTrip from="217531416" to="301439025#0" modes="public"/>
    </person>
    <person id="ped183" depart="872.10" type="ped_pedestrian">
        <personTrip from="137085411#3" to="375901779#1" modes="public"/>
    </person>
    <person id="ped184" depart="876.87" type="ped_pedestrian">
        <personTrip from="-104991251" to="541864434#1" modes="public"/>
    </person>
    <person id="ped185" depart="881.64" type="ped_pedestrian">
        <personTrip from="272795502#1" to="377634146" modes="public"/>
    </person>
    <person id="ped186" depart="886.40" type="ped_pedestrian">
        <personTrip from="388702039#9" to="346206377#0" modes="public"/>
    </person>
    <person id="ped187" depart="891.17" type="ped_pedestrian">
        <personTrip from="202156998#0" to="-23230845#3" modes="public"/>
    </person>
    <person id="ped188" depart="895.93" type="ped_pedestrian">
        <personTrip from="345088393#1" to="176043824" modes="public"/>
    </person>
</routes>
