<?xml version="1.0" encoding="UTF-8"?>

<!-- generated on 2024-04-03 10:04:27.497516 by osmWebWizard.py v1_19_0+1653-1011da01c71
<configuration>
    <net-file value="/home/erdm_ja/.texttest/tmp/tools.03Apr100413.81858/tools/import/OSM/webWizard/test/osm.net.xml.gz"/>
    <additional-files value="/home/erdm_ja/.texttest/tmp/tools.03Apr100413.81858/tools/import/OSM/webWizard/test/osm_stops.add.xml,/home/erdm_ja/.texttest/tmp/tools.03Apr100413.81858/tools/import/OSM/webWizard/test/osm_pt.rou.xml"/>
    <output-trip-file value="/home/erdm_ja/.texttest/tmp/tools.03Apr100413.81858/tools/import/OSM/webWizard/test/osm.pedestrian.trips.xml"/>
    <route-file value="/home/erdm_ja/.texttest/tmp/tools.03Apr100413.81858/tools/import/OSM/webWizard/test/osm.pedestrian.rou.xml"/>
    <persontrips value="True"/>
    <persontrip.walk-opposite-factor value="0.8"/>
    <prefix value="ped"/>
    <trip-attributes value="modes=&quot;public&quot;"/>
    <vehicle-class value="pedestrian"/>
    <fringe-factor value="1"/>
    <end value="900.0"/>
    <insertion-density value="4.0"/>
</configuration>
-->

<routes xmlns:xsi="http://www.w3.org/2001/XMLSchema-instance" xsi:noNamespaceSchemaLocation="http://sumo.dlr.de/xsd/routes_file.xsd">
    <vType id="ped_pedestrian" vClass="pedestrian"/>
    <person id="ped0" depart="0.00" type="ped_pedestrian">
        <personTrip from="335043660" to="-153692976#0" modes="public"/>
    </person>
    <person id="ped1" depart="4.75" type="ped_pedestrian">
        <personTrip from="159200257#3" to="107075620#0" modes="public"/>
    </person>
    <person id="ped2" depart="9.50" type="ped_pedestrian">
        <personTrip from="380240681#1" to="346206381#0" modes="public"/>
    </person>
    <person id="ped3" depart="14.24" type="ped_pedestrian">
        <personTrip from="51167562#1" to="-24993933#0" modes="public"/>
    </person>
    <person id="ped4" depart="18.99" type="ped_pedestrian">
        <personTrip from="23851897#1" to="-15971191#0" modes="public"/>
    </person>
    <person id="ped5" depart="23.74" type="ped_pedestrian">
        <personTrip from="100950875#2" to="272757333#0" modes="public"/>
    </person>
    <person id="ped6" depart="28.49" type="ped_pedestrian">
        <personTrip from="-153698394#2" to="-574993712" modes="public"/>
    </person>
    <person id="ped7" depart="33.24" type="ped_pedestrian">
        <personTrip from="335703513#1" to="272810803" modes="public"/>
    </person>
    <person id="ped8" depart="37.98" type="ped_pedestrian">
        <personTrip from="104786912#1" to="30721660#0" modes="public"/>
    </person>
    <person id="ped9" depart="42.73" type="ped_pedestrian">
        <personTrip from="4610362#0" to="-122820534#0" modes="public"/>
    </person>
    <person id="ped10" depart="47.48" type="ped_pedestrian">
        <personTrip from="4588219#2" to="36892597#1" modes="public"/>
    </person>
    <person id="ped11" depart="52.23" type="ped_pedestrian">
        <personTrip from="194069450#1" to="-4610362#8" modes="public"/>
    </person>
    <person id="ped12" depart="56.98" type="ped_pedestrian">
        <personTrip from="588960602" to="188488046" modes="public"/>
    </person>
    <person id="ped13" depart="61.72" type="ped_pedestrian">
        <personTrip from="-285825378#0" to="-304987178#0" modes="public"/>
    </person>
    <person id="ped14" depart="66.47" type="ped_pedestrian">
        <personTrip from="465376244#1" to="312175526#1" modes="public"/>
    </person>
    <person id="ped15" depart="71.22" type="ped_pedestrian">
        <personTrip from="460115469" to="378660724#0" modes="public"/>
    </person>
    <person id="ped16" depart="75.97" type="ped_pedestrian">
        <personTrip from="272795492" to="61583424#2" modes="public"/>
    </person>
    <person id="ped17" depart="80.72" type="ped_pedestrian">
        <personTrip from="202157027#0" to="274513566#1" modes="public"/>
    </person>
    <person id="ped18" depart="85.46" type="ped_pedestrian">
        <personTrip from="4612968#1" to="313323171#2" modes="public"/>
    </person>
    <person id="ped19" depart="90.21" type="ped_pedestrian">
        <personTrip from="475297457#2" to="292429062#3" modes="public"/>
    </person>
    <person id="ped20" depart="94.96" type="ped_pedestrian">
        <personTrip from="374734393#0" to="-19002363#4" modes="public"/>
    </person>
    <person id="ped21" depart="99.71" type="ped_pedestrian">
        <personTrip from="111833186#0" to="16873017#1" modes="public"/>
    </person>
    <person id="ped22" depart="104.46" type="ped_pedestrian">
        <personTrip from="-23852059" to="113589281#0" modes="public"/>
    </person>
    <person id="ped23" depart="109.20" type="ped_pedestrian">
        <personTrip from="-310176513#0" to="15968749#1" modes="public"/>
    </person>
    <person id="ped24" depart="113.95" type="ped_pedestrian">
        <personTrip from="330840133" to="202156991#1" modes="public"/>
    </person>
    <person id="ped25" depart="118.70" type="ped_pedestrian">
        <personTrip from="202157007" to="-72157168#4" modes="public"/>
    </person>
    <person id="ped26" depart="123.45" type="ped_pedestrian">
        <personTrip from="147066248#6" to="561816965" modes="public"/>
    </person>
    <person id="ped27" depart="128.20" type="ped_pedestrian">
        <personTrip from="335703509" to="312392975#0" modes="public"/>
    </person>
    <person id="ped28" depart="132.94" type="ped_pedestrian">
        <personTrip from="-4613304#1" to="378153327" modes="public"/>
    </person>
    <person id="ped29" depart="137.69" type="ped_pedestrian">
        <personTrip from="-4611694" to="202157028#0" modes="public"/>
    </person>
    <person id="ped30" depart="142.44" type="ped_pedestrian">
        <personTrip from="76865764#3" to="335043665#0" modes="public"/>
    </person>
    <person id="ped31" depart="147.19" type="ped_pedestrian">
        <personTrip from="274524370" to="346213311#3" modes="public"/>
    </person>
    <person id="ped32" depart="151.94" type="ped_pedestrian">
        <personTrip from="46517262#1" to="43185731" modes="public"/>
    </person>
    <person id="ped33" depart="156.68" type="ped_pedestrian">
        <personTrip from="112128418#1" to="-15977422#0" modes="public"/>
    </person>
    <person id="ped34" depart="161.43" type="ped_pedestrian">
        <personTrip from="171826985#1" to="150634670#1" modes="public"/>
    </person>
    <person id="ped35" depart="166.18" type="ped_pedestrian">
        <personTrip from="-7917219#1" to="566155003" modes="public"/>
    </person>
    <person id="ped36" depart="170.93" type="ped_pedestrian">
        <personTrip from="483624524#0" to="171826984#5" modes="public"/>
    </person>
    <person id="ped37" depart="175.68" type="ped_pedestrian">
        <personTrip from="339201219" to="225400609#9" modes="public"/>
    </person>
    <person id="ped38" depart="180.42" type="ped_pedestrian">
        <personTrip from="528042874" to="254523865" modes="public"/>
    </person>
    <person id="ped39" depart="185.17" type="ped_pedestrian">
        <personTrip from="137630051#2" to="133885746#1" modes="public"/>
    </person>
    <person id="ped40" depart="189.92" type="ped_pedestrian">
        <personTrip from="274524382#0" to="137630046" modes="public"/>
    </person>
    <person id="ped41" depart="194.67" type="ped_pedestrian">
        <personTrip from="304514893#7" to="51167933" modes="public"/>
    </person>
    <person id="ped42" depart="199.42" type="ped_pedestrian">
        <personTrip from="22954356#4" to="102408133#1" modes="public"/>
    </person>
    <person id="ped43" depart="204.16" type="ped_pedestrian">
        <personTrip from="82659291#2" to="272757338#2" modes="public"/>
    </person>
    <person id="ped44" depart="208.91" type="ped_pedestrian">
        <personTrip from="-28258879#0" to="-194069450#1" modes="public"/>
    </person>
    <person id="ped45" depart="213.66" type="ped_pedestrian">
        <personTrip from="-31959087#1" to="327519007" modes="public"/>
    </person>
    <person id="ped46" depart="218.41" type="ped_pedestrian">
        <personTrip from="440946436#1" to="23851897#2" modes="public"/>
    </person>
    <person id="ped47" depart="223.16" type="ped_pedestrian">
        <personTrip from="-225400578#1" to="202157030#1" modes="public"/>
    </person>
    <person id="ped48" depart="227.90" type="ped_pedestrian">
        <personTrip from="82658674#2" to="272780756#0" modes="public"/>
    </person>
    <person id="ped49" depart="232.65" type="ped_pedestrian">
        <personTrip from="61579351" to="474154190#1" modes="public"/>
    </person>
    <person id="ped50" depart="237.40" type="ped_pedestrian">
        <personTrip from="-133885744#0" to="377215961#1" modes="public"/>
    </person>
    <person id="ped51" depart="242.15" type="ped_pedestrian">
        <personTrip from="346212658" to="272795494#0" modes="public"/>
    </person>
    <person id="ped52" depart="246.90" type="ped_pedestrian">
        <personTrip from="147066248#5" to="335043667" modes="public"/>
    </person>
    <person id="ped53" depart="251.64" type="ped_pedestrian">
        <personTrip from="-326116285#1" to="24242892#4" modes="public"/>
    </person>
    <person id="ped54" depart="256.39" type="ped_pedestrian">
        <personTrip from="254339590#0" to="576310033#1" modes="public"/>
    </person>
    <person id="ped55" depart="261.14" type="ped_pedestrian">
        <personTrip from="483624522" to="137630048" modes="public"/>
    </person>
    <person id="ped56" depart="265.89" type="ped_pedestrian">
        <personTrip from="272757321" to="-51167562#1" modes="public"/>
    </person>
    <person id="ped57" depart="270.64" type="ped_pedestrian">
        <personTrip from="52349369#3" to="47986664#1" modes="public"/>
    </person>
    <person id="ped58" depart="275.39" type="ped_pedestrian">
        <personTrip from="169230291#1" to="335043658" modes="public"/>
    </person>
    <person id="ped59" depart="280.13" type="ped_pedestrian">
        <personTrip from="312392975#0" to="-4610355#1" modes="public"/>
    </person>
    <person id="ped60" depart="284.88" type="ped_pedestrian">
        <personTrip from="424344277" to="272795498#0" modes="public"/>
    </person>
    <person id="ped61" depart="289.63" type="ped_pedestrian">
        <personTrip from="43239303#0" to="272780760" modes="public"/>
    </person>
    <person id="ped62" depart="294.38" type="ped_pedestrian">
        <personTrip from="-100950875#1" to="175499825" modes="public"/>
    </person>
    <person id="ped63" depart="299.13" type="ped_pedestrian">
        <personTrip from="-137085413" to="553649890" modes="public"/>
    </person>
    <person id="ped64" depart="303.87" type="ped_pedestrian">
        <personTrip from="4840974#2" to="4612973#0" modes="public"/>
    </person>
    <person id="ped65" depart="308.62" type="ped_pedestrian">
        <personTrip from="170370361#0" to="-196850606#4" modes="public"/>
    </person>
    <person id="ped66" depart="313.37" type="ped_pedestrian">
        <personTrip from="4840974#0" to="570058772" modes="public"/>
    </person>
    <person id="ped67" depart="318.12" type="ped_pedestrian">
        <personTrip from="-24913267#2" to="272757270" modes="public"/>
    </person>
    <person id="ped68" depart="322.87" type="ped_pedestrian">
        <personTrip from="-23121445#5" to="422000254" modes="public"/>
    </person>
    <person id="ped69" depart="327.61" type="ped_pedestrian">
        <personTrip from="424895364" to="-375935042" modes="public"/>
    </person>
    <person id="ped70" depart="332.36" type="ped_pedestrian">
        <personTrip from="26322535#6" to="274513556#0" modes="public"/>
    </person>
    <person id="ped71" depart="337.11" type="ped_pedestrian">
        <personTrip from="139877314#2" to="48095588#2" modes="public"/>
    </person>
    <person id="ped72" depart="341.86" type="ped_pedestrian">
        <personTrip from="23851908#1" to="-8008608" modes="public"/>
    </person>
    <person id="ped73" depart="346.61" type="ped_pedestrian">
        <personTrip from="272795497#1" to="378660724#1" modes="public"/>
    </person>
    <person id="ped74" depart="351.35" type="ped_pedestrian">
        <personTrip from="-576310033#0" to="170852467" modes="public"/>
    </person>
    <person id="ped75" depart="356.10" type="ped_pedestrian">
        <personTrip from="82654055#1" to="335703513#1" modes="public"/>
    </person>
    <person id="ped76" depart="360.85" type="ped_pedestrian">
        <personTrip from="24273323#2" to="272757349#1" modes="public"/>
    </person>
    <person id="ped77" depart="365.60" type="ped_pedestrian">
        <personTrip from="-344595608#0" to="107747047#4" modes="public"/>
    </person>
    <person id="ped78" depart="370.35" type="ped_pedestrian">
        <personTrip from="19002363#4" to="305610351" modes="public"/>
    </person>
    <person id="ped79" depart="375.09" type="ped_pedestrian">
        <personTrip from="112128418#5" to="104786912#0" modes="public"/>
    </person>
    <person id="ped80" depart="379.84" type="ped_pedestrian">
        <personTrip from="-23443935#0" to="327519012#2" modes="public"/>
    </person>
    <person id="ped81" depart="384.59" type="ped_pedestrian">
        <personTrip from="112128417" to="518508124#5" modes="public"/>
    </person>
    <person id="ped82" depart="389.34" type="ped_pedestrian">
        <personTrip from="473149643" to="-23294727" modes="public"/>
    </person>
    <person id="ped83" depart="394.09" type="ped_pedestrian">
        <personTrip from="121717657#3" to="345088393#1" modes="public"/>
    </person>
    <person id="ped84" depart="398.83" type="ped_pedestrian">
        <personTrip from="-83517339" to="-409506038#0" modes="public"/>
    </person>
    <person id="ped85" depart="403.58" type="ped_pedestrian">
        <personTrip from="560370523" to="281922265#0" modes="public"/>
    </person>
    <person id="ped86" depart="408.33" type="ped_pedestrian">
        <personTrip from="260425593" to="437500502" modes="public"/>
    </person>
    <person id="ped87" depart="413.08" type="ped_pedestrian">
        <personTrip from="4610354" to="-534588621#0" modes="public"/>
    </person>
    <person id="ped88" depart="417.83" type="ped_pedestrian">
        <personTrip from="-304987178#1" to="23852051#1" modes="public"/>
    </person>
    <person id="ped89" depart="422.57" type="ped_pedestrian">
        <personTrip from="23851917#0" to="254523906#0" modes="public"/>
    </person>
    <person id="ped90" depart="427.32" type="ped_pedestrian">
        <personTrip from="378153327" to="346206368#3" modes="public"/>
    </person>
    <person id="ped91" depart="432.07" type="ped_pedestrian">
        <personTrip from="72157169#0" to="-30721660#0" modes="public"/>
    </person>
    <person id="ped92" depart="436.82" type="ped_pedestrian">
        <personTrip from="230015283" to="190447767#1" modes="public"/>
    </person>
    <person id="ped93" depart="441.57" type="ped_pedestrian">
        <personTrip from="475297457#2" to="133885750#3" modes="public"/>
    </person>
    <person id="ped94" depart="446.31" type="ped_pedestrian">
        <personTrip from="-530111226" to="254339567#1" modes="public"/>
    </person>
    <person id="ped95" depart="451.06" type="ped_pedestrian">
        <personTrip from="23851897#1" to="15968749#3" modes="public"/>
    </person>
    <person id="ped96" depart="455.81" type="ped_pedestrian">
        <personTrip from="133957851" to="541864430" modes="public"/>
    </person>
    <person id="ped97" depart="460.56" type="ped_pedestrian">
        <personTrip from="24540240#5" to="475297457#1" modes="public"/>
    </person>
    <person id="ped98" depart="465.31" type="ped_pedestrian">
        <personTrip from="274513558" to="-194177700#2" modes="public"/>
    </person>
    <person id="ped99" depart="470.05" type="ped_pedestrian">
        <personTrip from="83517339" to="463829469#0" modes="public"/>
    </person>
    <person id="ped100" depart="474.80" type="ped_pedestrian">
        <personTrip from="606078064" to="54781811#1" modes="public"/>
    </person>
    <person id="ped101" depart="479.55" type="ped_pedestrian">
        <personTrip from="465376250#0" to="-4611708#3" modes="public"/>
    </person>
    <person id="ped102" depart="484.30" type="ped_pedestrian">
        <personTrip from="272757269" to="-83517334#1" modes="public"/>
    </person>
    <person id="ped103" depart="489.05" type="ped_pedestrian">
        <personTrip from="230015276" to="-202156991#0" modes="public"/>
    </person>
    <person id="ped104" depart="493.79" type="ped_pedestrian">
        <personTrip from="202157027#1" to="72157174#1" modes="public"/>
    </person>
    <person id="ped105" depart="498.54" type="ped_pedestrian">
        <personTrip from="139877314#2" to="437500500" modes="public"/>
    </person>
    <person id="ped106" depart="503.29" type="ped_pedestrian">
        <personTrip from="254339591#2" to="23851908#1" modes="public"/>
    </person>
    <person id="ped107" depart="508.04" type="ped_pedestrian">
        <personTrip from="588960602" to="82658671#1" modes="public"/>
    </person>
    <person id="ped108" depart="512.79" type="ped_pedestrian">
        <personTrip from="274524364#0" to="377110621#1" modes="public"/>
    </person>
    <person id="ped109" depart="517.53" type="ped_pedestrian">
        <personTrip from="-4610362#5" to="169195795#2" modes="public"/>
    </person>
    <person id="ped110" depart="522.28" type="ped_pedestrian">
        <personTrip from="60333313" to="301241681#1" modes="public"/>
    </person>
    <person id="ped111" depart="527.03" type="ped_pedestrian">
        <personTrip from="272795502#1" to="394345496#4" modes="public"/>
    </person>
    <person id="ped112" depart="531.78" type="ped_pedestrian">
        <personTrip from="-195397561#1" to="304514893#5" modes="public"/>
    </person>
    <person id="ped113" depart="536.53" type="ped_pedestrian">
        <personTrip from="272757325#1" to="465376261#3" modes="public"/>
    </person>
    <person id="ped114" depart="541.27" type="ped_pedestrian">
        <personTrip from="-4610476#1" to="59286188#1" modes="public"/>
    </person>
    <person id="ped115" depart="546.02" type="ped_pedestrian">
        <personTrip from="-24241762#2" to="-51236793#0" modes="public"/>
    </person>
    <person id="ped116" depart="550.77" type="ped_pedestrian">
        <personTrip from="310176513#2" to="346206374" modes="public"/>
    </person>
    <person id="ped117" depart="555.52" type="ped_pedestrian">
        <personTrip from="114133910#2" to="-340498976#8" modes="public"/>
    </person>
    <person id="ped118" depart="560.27" type="ped_pedestrian">
        <personTrip from="51167559#1" to="133885744#1" modes="public"/>
    </person>
    <person id="ped119" depart="565.01" type="ped_pedestrian">
        <personTrip from="310176513#0" to="315245296#1" modes="public"/>
    </person>
    <person id="ped120" depart="569.76" type="ped_pedestrian">
        <personTrip from="23755950#1" to="304514893#4" modes="public"/>
    </person>
    <person id="ped121" depart="574.51" type="ped_pedestrian">
        <personTrip from="272780737" to="558867476" modes="public"/>
    </person>
    <person id="ped122" depart="579.26" type="ped_pedestrian">
        <personTrip from="-61670659" to="375935042" modes="public"/>
    </person>
    <person id="ped123" depart="584.01" type="ped_pedestrian">
        <personTrip from="122820534#0" to="226046736#1" modes="public"/>
    </person>
    <person id="ped124" depart="588.75" type="ped_pedestrian">
        <personTrip from="346206362#1" to="169660686#0" modes="public"/>
    </person>
    <person id="ped125" depart="593.50" type="ped_pedestrian">
        <personTrip from="171826986#1" to="398956073" modes="public"/>
    </person>
    <person id="ped126" depart="598.25" type="ped_pedestrian">
        <personTrip from="-23755950#3" to="254523863#0" modes="public"/>
    </person>
    <person id="ped127" depart="603.00" type="ped_pedestrian">
        <personTrip from="83517334#1" to="82658674#2" modes="public"/>
    </person>
    <person id="ped128" depart="607.75" type="ped_pedestrian">
        <personTrip from="-23809670#4" to="-82658674#2" modes="public"/>
    </person>
    <person id="ped129" depart="612.49" type="ped_pedestrian">
        <personTrip from="139877314#2" to="557076773" modes="public"/>
    </person>
    <person id="ped130" depart="617.24" type="ped_pedestrian">
        <personTrip from="48435438" to="4840977#1" modes="public"/>
    </person>
    <person id="ped131" depart="621.99" type="ped_pedestrian">
        <personTrip from="202157002#2" to="-4610476#2" modes="public"/>
    </person>
    <person id="ped132" depart="626.74" type="ped_pedestrian">
        <personTrip from="4613304#1" to="374734389#0" modes="public"/>
    </person>
    <person id="ped133" depart="631.49" type="ped_pedestrian">
        <personTrip from="312514710#0" to="72463266#1" modes="public"/>
    </person>
    <person id="ped134" depart="636.23" type="ped_pedestrian">
        <personTrip from="339201177#4" to="-128396190#1" modes="public"/>
    </person>
    <person id="ped135" depart="640.98" type="ped_pedestrian">
        <personTrip from="4610609#0" to="169230291#4" modes="public"/>
    </person>
    <person id="ped136" depart="645.73" type="ped_pedestrian">
        <personTrip from="343965618#0" to="565537148#0" modes="public"/>
    </person>
    <person id="ped137" depart="650.48" type="ped_pedestrian">
        <personTrip from="-410310755#2" to="-339201177#0" modes="public"/>
    </person>
    <person id="ped138" depart="655.23" type="ped_pedestrian">
        <personTrip from="-31313667#1" to="274513577#0" modes="public"/>
    </person>
    <person id="ped139" depart="659.97" type="ped_pedestrian">
        <personTrip from="156364559#4" to="312362360#1" modes="public"/>
    </person>
    <person id="ped140" depart="664.72" type="ped_pedestrian">
        <personTrip from="377110615" to="-61579356" modes="public"/>
    </person>
    <person id="ped141" depart="669.47" type="ped_pedestrian">
        <personTrip from="33036326" to="137630050" modes="public"/>
    </person>
    <person id="ped142" depart="674.22" type="ped_pedestrian">
        <personTrip from="272757278" to="518508124#5" modes="public"/>
    </person>
    <person id="ped143" depart="678.97" type="ped_pedestrian">
        <personTrip from="465376240" to="-285825377" modes="public"/>
    </person>
    <person id="ped144" depart="683.71" type="ped_pedestrian">
        <personTrip from="23851917#0" to="159482051" modes="public"/>
    </person>
    <person id="ped145" depart="688.46" type="ped_pedestrian">
        <personTrip from="-111833185#0" to="43158961#2" modes="public"/>
    </person>
    <person id="ped146" depart="693.21" type="ped_pedestrian">
        <personTrip from="331883793" to="137085434#3" modes="public"/>
    </person>
    <person id="ped147" depart="697.96" type="ped_pedestrian">
        <personTrip from="38211708#0" to="274513565#1" modes="public"/>
    </person>
    <person id="ped148" depart="702.71" type="ped_pedestrian">
        <personTrip from="23852041#2" to="-132460631#0" modes="public"/>
    </person>
    <person id="ped149" depart="707.45" type="ped_pedestrian">
        <personTrip from="-23852035#0" to="48664687#1" modes="public"/>
    </person>
    <person id="ped150" depart="712.20" type="ped_pedestrian">
        <personTrip from="518508124#0" to="272810805" modes="public"/>
    </person>
    <person id="ped151" depart="716.95" type="ped_pedestrian">
        <personTrip from="46140377#3" to="301733776" modes="public"/>
    </person>
    <person id="ped152" depart="721.70" type="ped_pedestrian">
        <personTrip from="-454285423#3" to="-369224774" modes="public"/>
    </person>
    <person id="ped153" depart="726.45" type="ped_pedestrian">
        <personTrip from="170370361#2" to="51167934#4" modes="public"/>
    </person>
    <person id="ped154" depart="731.19" type="ped_pedestrian">
        <personTrip from="442921918" to="474154190#1" modes="public"/>
    </person>
    <person id="ped155" depart="735.94" type="ped_pedestrian">
        <personTrip from="51167934#4" to="-72157169#0" modes="public"/>
    </person>
    <person id="ped156" depart="740.69" type="ped_pedestrian">
        <personTrip from="133957850" to="-310176513#8" modes="public"/>
    </person>
    <person id="ped157" depart="745.44" type="ped_pedestrian">
        <personTrip from="437325047#2" to="488668302" modes="public"/>
    </person>
    <person id="ped158" depart="750.19" type="ped_pedestrian">
        <personTrip from="23121445#2" to="316301061" modes="public"/>
    </person>
    <person id="ped159" depart="754.93" type="ped_pedestrian">
        <personTrip from="-4610362#3" to="553649891#1" modes="public"/>
    </person>
    <person id="ped160" depart="759.68" type="ped_pedestrian">
        <personTrip from="4773025" to="61670664" modes="public"/>
    </person>
    <person id="ped161" depart="764.43" type="ped_pedestrian">
        <personTrip from="4610362#6" to="48435510" modes="public"/>
    </person>
    <person id="ped162" depart="769.18" type="ped_pedestrian">
        <personTrip from="-150634670#1" to="380240683" modes="public"/>
    </person>
    <person id="ped163" depart="773.93" type="ped_pedestrian">
        <personTrip from="176043824" to="554949051#2" modes="public"/>
    </person>
    <person id="ped164" depart="778.67" type="ped_pedestrian">
        <personTrip from="454285423#3" to="4773024#0" modes="public"/>
    </person>
    <person id="ped165" depart="783.42" type="ped_pedestrian">
        <personTrip from="4610362#6" to="147066248#5" modes="public"/>
    </person>
    <person id="ped166" depart="788.17" type="ped_pedestrian">
        <personTrip from="437502564" to="-318915601#0" modes="public"/>
    </person>
    <person id="ped167" depart="792.92" type="ped_pedestrian">
        <personTrip from="48095588#1" to="473149639" modes="public"/>
    </person>
    <person id="ped168" depart="797.67" type="ped_pedestrian">
        <personTrip from="104991252#2" to="4610600" modes="public"/>
    </person>
    <person id="ped169" depart="802.42" type="ped_pedestrian">
        <personTrip from="254523875" to="170098545#1" modes="public"/>
    </person>
    <person id="ped170" depart="807.16" type="ped_pedestrian">
        <personTrip from="442577419" to="111833185#1" modes="public"/>
    </person>
    <person id="ped171" depart="811.91" type="ped_pedestrian">
        <personTrip from="-147066248#4" to="-55494203" modes="public"/>
    </person>
    <person id="ped172" depart="816.66" type="ped_pedestrian">
        <personTrip from="175885745" to="4773024#1" modes="public"/>
    </person>
    <person id="ped173" depart="821.41" type="ped_pedestrian">
        <personTrip from="59636538" to="15971189" modes="public"/>
    </person>
    <person id="ped174" depart="826.16" type="ped_pedestrian">
        <personTrip from="335043668#1" to="22972195#2" modes="public"/>
    </person>
    <person id="ped175" depart="830.90" type="ped_pedestrian">
        <personTrip from="68647306#3" to="272795492" modes="public"/>
    </person>
    <person id="ped176" depart="835.65" type="ped_pedestrian">
        <personTrip from="566154986" to="-339201177#0" modes="public"/>
    </person>
    <person id="ped177" depart="840.40" type="ped_pedestrian">
        <personTrip from="606078071#0" to="-51167562#1" modes="public"/>
    </person>
    <person id="ped178" depart="845.15" type="ped_pedestrian">
        <personTrip from="59286194#3" to="147066248#0" modes="public"/>
    </person>
    <person id="ped179" depart="849.90" type="ped_pedestrian">
        <personTrip from="-318915601#1" to="24242892#4" modes="public"/>
    </person>
    <person id="ped180" depart="854.64" type="ped_pedestrian">
        <personTrip from="378150075#1" to="171423002" modes="public"/>
    </person>
    <person id="ped181" depart="859.39" type="ped_pedestrian">
        <personTrip from="312392966#4" to="272757341#0" modes="public"/>
    </person>
    <person id="ped182" depart="864.14" type="ped_pedestrian">
        <personTrip from="202817676" to="292429062#0" modes="public"/>
    </person>
    <person id="ped183" depart="868.89" type="ped_pedestrian">
        <personTrip from="137085410#5" to="374734394#8" modes="public"/>
    </person>
    <person id="ped184" depart="873.64" type="ped_pedestrian">
        <personTrip from="-104991251" to="546927052" modes="public"/>
    </person>
    <person id="ped185" depart="878.38" type="ped_pedestrian">
        <personTrip from="272795496#0" to="377110622#1" modes="public"/>
    </person>
    <person id="ped186" depart="883.13" type="ped_pedestrian">
        <personTrip from="38347139" to="346206356#0" modes="public"/>
    </person>
    <person id="ped187" depart="887.88" type="ped_pedestrian">
        <personTrip from="199485599" to="-23230845#2" modes="public"/>
    </person>
    <person id="ped188" depart="892.63" type="ped_pedestrian">
        <personTrip from="34411872" to="175885747#3" modes="public"/>
    </person>
    <person id="ped189" depart="897.38" type="ped_pedestrian">
        <personTrip from="171826984#2" to="465376247#0" modes="public"/>
    </person>
</routes>
