<?xml version="1.0" encoding="UTF-8"?>
<!-- generated on 2019-01-02 13:17:37.395992 by $Id$
  options: <doubleminus>test-output test
-->
<routes xmlns:xsi="http://www.w3.org/2001/XMLSchema-instance" xsi:noNamespaceSchemaLocation="http://sumo.dlr.de/xsd/routes_file.xsd">
    <vType id="ped_pedestrian" vClass="pedestrian"/>
    <person id="ped0" depart="0.00" type="ped_pedestrian">
        <personTrip from="335704571" to="-15973619#0" modes="public"/>
    </person>
    <person id="ped1" depart="4.37" type="ped_pedestrian">
        <personTrip from="169195164" to="132460632#1" modes="public"/>
    </person>
    <person id="ped2" depart="8.74" type="ped_pedestrian">
        <personTrip from="388702047#0" to="346229515#4" modes="public"/>
    </person>
    <person id="ped3" depart="13.11" type="ped_pedestrian">
        <personTrip from="51167565" to="-292429062#2" modes="public"/>
    </person>
    <person id="ped4" depart="17.48" type="ped_pedestrian">
        <personTrip from="24242892#3" to="-168940071#1" modes="public"/>
    </person>
    <person id="ped5" depart="21.85" type="ped_pedestrian">
        <personTrip from="125513274" to="272757347#0" modes="public"/>
    </person>
    <person id="ped6" depart="26.22" type="ped_pedestrian">
        <personTrip from="-15973619#5" to="104991252#0" modes="public"/>
    </person>
    <person id="ped7" depart="30.59" type="ped_pedestrian">
        <personTrip from="340498982#1" to="274524372" modes="public"/>
    </person>
    <person id="ped8" depart="34.96" type="ped_pedestrian">
        <personTrip from="131420077#1" to="31112516#0" modes="public"/>
    </person>
    <person id="ped9" depart="39.34" type="ped_pedestrian">
        <personTrip from="4610525#1" to="-128396189#0" modes="public"/>
    </person>
    <person id="ped10" depart="43.71" type="ped_pedestrian">
        <personTrip from="4610362#8" to="374734396#4" modes="public"/>
    </person>
    <person id="ped11" depart="48.08" type="ped_pedestrian">
        <personTrip from="196850613" to="-4612969#1" modes="public"/>
    </person>
    <person id="ped12" depart="52.45" type="ped_pedestrian">
        <personTrip from="59286185#0" to="196850606#2" modes="public"/>
    </person>
    <person id="ped13" depart="56.82" type="ped_pedestrian">
        <personTrip from="-310176513#2" to="-312651888#0" modes="public"/>
    </person>
    <person id="ped14" depart="61.19" type="ped_pedestrian">
        <personTrip from="465376251#0" to="312869977" modes="public"/>
    </person>
    <person id="ped15" depart="65.56" type="ped_pedestrian">
        <personTrip from="4610476#1" to="38711947#1" modes="public"/>
    </person>
    <person id="ped16" depart="69.93" type="ped_pedestrian">
        <personTrip from="274513544" to="61585626#1" modes="public"/>
    </person>
    <person id="ped17" depart="74.30" type="ped_pedestrian">
        <personTrip from="225400609#9" to="280007138" modes="public"/>
    </person>
    <person id="ped18" depart="78.67" type="ped_pedestrian">
        <personTrip from="4613295#0" to="327519008#0" modes="public"/>
    </person>
    <person id="ped19" depart="83.04" type="ped_pedestrian">
        <personTrip from="4773023#0" to="30720544#1" modes="public"/>
    </person>
    <person id="ped20" depart="87.41" type="ped_pedestrian">
        <personTrip from="377110614" to="-194962998#1" modes="public"/>
    </person>
    <person id="ped21" depart="91.78" type="ped_pedestrian">
        <personTrip from="133895404" to="170852444" modes="public"/>
    </person>
    <person id="ped22" depart="96.15" type="ped_pedestrian">
        <personTrip from="-26322535#0" to="137085410#4" modes="public"/>
    </person>
    <person id="ped23" depart="100.52" type="ped_pedestrian">
        <personTrip from="-320454752" to="169195795#7" modes="public"/>
    </person>
    <person id="ped24" depart="104.89" type="ped_pedestrian">
        <personTrip from="335576650#1" to="202157029#2" modes="public"/>
    </person>
    <person id="ped25" depart="109.26" type="ped_pedestrian">
        <personTrip from="205728152#1" to="112128825#1" modes="public"/>
    </person>
    <person id="ped26" depart="113.64" type="ped_pedestrian">
        <personTrip from="165415454#0" to="564139999#5" modes="public"/>
    </person>
    <person id="ped27" depart="118.01" type="ped_pedestrian">
        <personTrip from="340498976#2" to="316092515" modes="public"/>
    </person>
    <person id="ped28" depart="122.38" type="ped_pedestrian">
        <personTrip from="-541295974" to="386993646" modes="public"/>
    </person>
    <person id="ped29" depart="126.75" type="ped_pedestrian">
        <personTrip from="-492973498" to="228484736" modes="public"/>
    </person>
    <person id="ped30" depart="131.12" type="ped_pedestrian">
        <personTrip from="82168031" to="335704573" modes="public"/>
    </person>
    <person id="ped31" depart="135.49" type="ped_pedestrian">
        <personTrip from="28016309#3" to="365489669" modes="public"/>
    </person>
    <person id="ped32" depart="139.86" type="ped_pedestrian">
        <personTrip from="46517262#5" to="437325051#0" modes="public"/>
    </person>
    <person id="ped33" depart="144.23" type="ped_pedestrian">
        <personTrip from="133957854" to="-169660686#0" modes="public"/>
    </person>
    <person id="ped34" depart="148.60" type="ped_pedestrian">
        <personTrip from="181587286#1" to="165415464#0" modes="public"/>
    </person>
    <person id="ped35" depart="152.97" type="ped_pedestrian">
        <personTrip from="113589280#3" to="569067820" modes="public"/>
    </person>
    <person id="ped36" depart="157.34" type="ped_pedestrian">
        <personTrip from="4840974#0" to="181587284#1" modes="public"/>
    </person>
    <person id="ped37" depart="161.71" type="ped_pedestrian">
        <personTrip from="344595604" to="235503139#1" modes="public"/>
    </person>
    <person id="ped38" depart="166.08" type="ped_pedestrian">
        <personTrip from="533594855" to="254523906#1" modes="public"/>
    </person>
    <person id="ped39" depart="170.45" type="ped_pedestrian">
        <personTrip from="164874305" to="153692976#0" modes="public"/>
    </person>
    <person id="ped40" depart="174.82" type="ped_pedestrian">
        <personTrip from="285825378#1" to="163368220#2" modes="public"/>
    </person>
    <person id="ped41" depart="179.19" type="ped_pedestrian">
        <personTrip from="310176513#3" to="51167934#2" modes="public"/>
    </person>
    <person id="ped42" depart="183.57" type="ped_pedestrian">
        <personTrip from="237520773#3" to="128396189#1" modes="public"/>
    </person>
    <person id="ped43" depart="187.94" type="ped_pedestrian">
        <personTrip from="83517332#3" to="272780726" modes="public"/>
    </person>
    <person id="ped44" depart="192.31" type="ped_pedestrian">
        <personTrip from="-30721660#5" to="-195089288#1" modes="public"/>
    </person>
    <person id="ped45" depart="196.68" type="ped_pedestrian">
        <personTrip from="-340498976#5" to="331883793" modes="public"/>
    </person>
    <person id="ped46" depart="201.05" type="ped_pedestrian">
        <personTrip from="449849679#1" to="24242892#4" modes="public"/>
    </person>
    <person id="ped47" depart="205.42" type="ped_pedestrian">
        <personTrip from="-23755950#2" to="22954356#2" modes="public"/>
    </person>
    <person id="ped48" depart="209.79" type="ped_pedestrian">
        <personTrip from="82659291#3" to="272795500#2" modes="public"/>
    </person>
    <person id="ped49" depart="214.16" type="ped_pedestrian">
        <personTrip from="61583424#1" to="475297967#1" modes="public"/>
    </person>
    <person id="ped50" depart="218.53" type="ped_pedestrian">
        <personTrip from="-133885749#0" to="379904843#2" modes="public"/>
    </person>
    <person id="ped51" depart="222.90" type="ped_pedestrian">
        <personTrip from="35557143#1" to="274513549" modes="public"/>
    </person>
    <person id="ped52" depart="227.27" type="ped_pedestrian">
        <personTrip from="165415452#0" to="337139760" modes="public"/>
    </person>
    <person id="ped53" depart="231.64" type="ped_pedestrian">
        <personTrip from="-34848160#0" to="24914141#4" modes="public"/>
    </person>
    <person id="ped54" depart="236.01" type="ped_pedestrian">
        <personTrip from="254523886" to="588416654" modes="public"/>
    </person>
    <person id="ped55" depart="240.38" type="ped_pedestrian">
        <personTrip from="483624527" to="164039095#1" modes="public"/>
    </person>
    <person id="ped56" depart="244.75" type="ped_pedestrian">
        <personTrip from="272757339#2" to="-576287035" modes="public"/>
    </person>
    <person id="ped57" depart="249.12" type="ped_pedestrian">
        <personTrip from="528042858#1" to="48095588#0" modes="public"/>
    </person>
    <person id="ped58" depart="253.49" type="ped_pedestrian">
        <personTrip from="171829092" to="335703513#0" modes="public"/>
    </person>
    <person id="ped59" depart="257.87" type="ped_pedestrian">
        <personTrip from="315392489" to="-4612427#0" modes="public"/>
    </person>
    <person id="ped60" depart="262.24" type="ped_pedestrian">
        <personTrip from="427637455#1" to="274513565#1" modes="public"/>
    </person>
    <person id="ped61" depart="266.61" type="ped_pedestrian">
        <personTrip from="437500499" to="272795502#1" modes="public"/>
    </person>
    <person id="ped62" depart="270.98" type="ped_pedestrian">
        <personTrip from="-104991251" to="194177692#0" modes="public"/>
    </person>
    <person id="ped63" depart="275.35" type="ped_pedestrian">
        <personTrip from="-147066248#2" to="554949051#1" modes="public"/>
    </person>
    <person id="ped64" depart="279.72" type="ped_pedestrian">
        <personTrip from="48435427" to="4613304#1" modes="public"/>
    </person>
    <person id="ped65" depart="284.09" type="ped_pedestrian">
        <personTrip from="175885743" to="-22972473#0" modes="public"/>
    </person>
    <person id="ped66" depart="288.46" type="ped_pedestrian">
        <personTrip from="48435250" to="570058784" modes="public"/>
    </person>
    <person id="ped67" depart="292.83" type="ped_pedestrian">
        <personTrip from="-285825378#2" to="272757305" modes="public"/>
    </person>
    <person id="ped68" depart="297.20" type="ped_pedestrian">
        <personTrip from="-24242892#2" to="424351834" modes="public"/>
    </person>
    <person id="ped69" depart="301.57" type="ped_pedestrian">
        <personTrip from="43159542" to="-437325047#3" modes="public"/>
    </person>
    <person id="ped70" depart="305.94" type="ped_pedestrian">
        <personTrip from="272757263" to="275008387#1" modes="public"/>
    </person>
    <person id="ped71" depart="310.31" type="ped_pedestrian">
        <personTrip from="164874306" to="482809613" modes="public"/>
    </person>
    <person id="ped72" depart="314.68" type="ped_pedestrian">
        <personTrip from="24243052#3" to="113589281#2" modes="public"/>
    </person>
    <person id="ped73" depart="319.05" type="ped_pedestrian">
        <personTrip from="274513565#1" to="387892378" modes="public"/>
    </person>
    <person id="ped74" depart="323.42" type="ped_pedestrian">
        <personTrip from="107747047#4" to="176043807#1" modes="public"/>
    </person>
    <person id="ped75" depart="327.79" type="ped_pedestrian">
        <personTrip from="82659290#0" to="340498982#1" modes="public"/>
    </person>
    <person id="ped76" depart="332.17" type="ped_pedestrian">
        <personTrip from="24993933#1" to="272780755#0" modes="public"/>
    </person>
    <person id="ped77" depart="336.54" type="ped_pedestrian">
        <personTrip from="-409506038#1" to="133885745#1" modes="public"/>
    </person>
    <person id="ped78" depart="340.91" type="ped_pedestrian">
        <personTrip from="196850608#0" to="310548395" modes="public"/>
    </person>
    <person id="ped79" depart="345.28" type="ped_pedestrian">
        <personTrip from="134021300#4" to="128396190#4" modes="public"/>
    </person>
    <person id="ped80" depart="349.65" type="ped_pedestrian">
        <personTrip from="-24243107#2" to="335043668#0" modes="public"/>
    </person>
    <person id="ped81" depart="354.02" type="ped_pedestrian">
        <personTrip from="133957854" to="521729368#1" modes="public"/>
    </person>
    <person id="ped82" depart="358.39" type="ped_pedestrian">
        <personTrip from="475297457#0" to="-24243107#1" modes="public"/>
    </person>
    <person id="ped83" depart="362.76" type="ped_pedestrian">
        <personTrip from="137085430#2" to="346212656#6" modes="public"/>
    </person>
    <person id="ped84" depart="367.13" type="ped_pedestrian">
        <personTrip from="114667396#0" to="-4412868" modes="public"/>
    </person>
    <person id="ped85" depart="371.50" type="ped_pedestrian">
        <personTrip from="562707499" to="301449040" modes="public"/>
    </person>
    <person id="ped86" depart="375.87" type="ped_pedestrian">
        <personTrip from="272757258#4" to="4403559#1" modes="public"/>
    </person>
    <person id="ped87" depart="380.24" type="ped_pedestrian">
        <personTrip from="4610476#2" to="-83517336#1" modes="public"/>
    </person>
    <person id="ped88" depart="384.61" type="ped_pedestrian">
        <personTrip from="-312651888#1" to="24913267#0" modes="public"/>
    </person>
    <person id="ped89" depart="388.98" type="ped_pedestrian">
        <personTrip from="24243092#0" to="263821578" modes="public"/>
    </person>
    <person id="ped90" depart="393.35" type="ped_pedestrian">
        <personTrip from="386993646" to="346213311#6" modes="public"/>
    </person>
    <person id="ped91" depart="397.72" type="ped_pedestrian">
        <personTrip from="72455512" to="-315255206" modes="public"/>
    </person>
    <person id="ped92" depart="402.10" type="ped_pedestrian">
        <personTrip from="23755950#0" to="196850610" modes="public"/>
    </person>
    <person id="ped93" depart="406.47" type="ped_pedestrian">
        <personTrip from="4773023#0" to="155186522" modes="public"/>
    </person>
    <person id="ped94" depart="410.84" type="ped_pedestrian">
        <personTrip from="-83517336#1" to="254339592#0" modes="public"/>
    </person>
    <person id="ped95" depart="415.21" type="ped_pedestrian">
        <personTrip from="24242892#3" to="169230291#0" modes="public"/>
    </person>
    <person id="ped96" depart="419.58" type="ped_pedestrian">
        <personTrip from="156364559#1" to="54618192#2" modes="public"/>
    </person>
    <person id="ped97" depart="423.95" type="ped_pedestrian">
        <personTrip from="254339579" to="475297968#1" modes="public"/>
    </person>
    <person id="ped98" depart="428.32" type="ped_pedestrian">
        <personTrip from="275177453" to="-195411605#0" modes="public"/>
    </person>
    <person id="ped99" depart="432.69" type="ped_pedestrian">
        <personTrip from="84960595" to="463829474#1" modes="public"/>
    </person>
    <person id="ped100" depart="437.06" type="ped_pedestrian">
        <personTrip from="607001337" to="553121566#0" modes="public"/>
    </person>
    <person id="ped101" depart="441.43" type="ped_pedestrian">
        <personTrip from="465376254" to="-51167934#3" modes="public"/>
    </person>
    <person id="ped102" depart="445.80" type="ped_pedestrian">
        <personTrip from="272757304" to="114133914#1" modes="public"/>
    </person>
    <person id="ped103" depart="450.17" type="ped_pedestrian">
        <personTrip from="237522574#0" to="-23121445#0" modes="public"/>
    </person>
    <person id="ped104" depart="454.54" type="ped_pedestrian">
        <personTrip from="226046736#1" to="72463267#1" modes="public"/>
    </person>
    <person id="ped105" depart="458.91" type="ped_pedestrian">
        <personTrip from="164874306" to="4402228" modes="public"/>
    </person>
    <person id="ped106" depart="463.28" type="ped_pedestrian">
        <personTrip from="254523890#0" to="24243052#3" modes="public"/>
    </person>
    <person id="ped107" depart="467.65" type="ped_pedestrian">
        <personTrip from="59286185#0" to="82659291#0" modes="public"/>
    </person>
    <person id="ped108" depart="472.02" type="ped_pedestrian">
        <personTrip from="280007142#7" to="378662088#1" modes="public"/>
    </person>
    <person id="ped109" depart="476.40" type="ped_pedestrian">
        <personTrip from="-4612968#2" to="171826986#3" modes="public"/>
    </person>
    <person id="ped110" depart="480.77" type="ped_pedestrian">
        <personTrip from="607001336" to="30721660#5" modes="public"/>
    </person>
    <person id="ped111" depart="485.14" type="ped_pedestrian">
        <personTrip from="274513581#3" to="409506039#0" modes="public"/>
    </person>
    <person id="ped112" depart="489.51" type="ped_pedestrian">
        <personTrip from="-22954356#3" to="310176513#2" modes="public"/>
    </person>
    <person id="ped113" depart="493.88" type="ped_pedestrian">
        <personTrip from="272757343#1" to="465398530#3" modes="public"/>
    </person>
    <person id="ped114" depart="498.25" type="ped_pedestrian">
        <personTrip from="-4613299#1" to="59287094" modes="public"/>
    </person>
    <person id="ped115" depart="502.62" type="ped_pedestrian">
        <personTrip from="-26322535#2" to="-68647306#3" modes="public"/>
    </person>
    <person id="ped116" depart="506.99" type="ped_pedestrian">
        <personTrip from="312392966#1" to="346229513" modes="public"/>
    </person>
    <person id="ped117" depart="511.36" type="ped_pedestrian">
        <personTrip from="137085413" to="-389101385" modes="public"/>
    </person>
    <person id="ped118" depart="515.73" type="ped_pedestrian">
        <personTrip from="51167560" to="150634670#1" modes="public"/>
    </person>
    <person id="ped119" depart="520.10" type="ped_pedestrian">
        <personTrip from="312362360#1" to="327519010#0" modes="public"/>
    </person>
    <person id="ped120" depart="524.47" type="ped_pedestrian">
        <personTrip from="24241790#2" to="310176513#0" modes="public"/>
    </person>
    <person id="ped121" depart="528.84" type="ped_pedestrian">
        <personTrip from="272795486" to="561816966" modes="public"/>
    </person>
    <person id="ped122" depart="533.21" type="ped_pedestrian">
        <personTrip from="110676321" to="378660724#0" modes="public"/>
    </person>
    <person id="ped123" depart="537.58" type="ped_pedestrian">
        <personTrip from="137085431#1" to="235503139#1" modes="public"/>
    </person>
    <person id="ped124" depart="541.95" type="ped_pedestrian">
        <personTrip from="346213311#0" to="171829099#2" modes="public"/>
    </person>
    <person id="ped125" depart="546.32" type="ped_pedestrian">
        <personTrip from="183649398" to="410369543" modes="public"/>
    </person>
    <person id="ped126" depart="550.70" type="ped_pedestrian">
        <personTrip from="-24509315#1" to="254523905" modes="public"/>
    </person>
    <person id="ped127" depart="555.07" type="ped_pedestrian">
        <personTrip from="83517336#2" to="82659291#3" modes="public"/>
    </person>
    <person id="ped128" depart="559.44" type="ped_pedestrian">
        <personTrip from="-24540240#1" to="114133910#1" modes="public"/>
    </person>
    <person id="ped129" depart="563.81" type="ped_pedestrian">
        <personTrip from="164874306" to="558867477" modes="public"/>
    </person>
    <person id="ped130" depart="568.18" type="ped_pedestrian">
        <personTrip from="48664687#1" to="48435445" modes="public"/>
    </person>
    <person id="ped131" depart="572.55" type="ped_pedestrian">
        <personTrip from="203985625#1" to="-4613299#2" modes="public"/>
    </person>
    <person id="ped132" depart="576.92" type="ped_pedestrian">
        <personTrip from="46140378" to="375935042" modes="public"/>
    </person>
    <person id="ped133" depart="581.29" type="ped_pedestrian">
        <personTrip from="318282850#1" to="76865764#3" modes="public"/>
    </person>
    <person id="ped134" depart="585.66" type="ped_pedestrian">
        <personTrip from="344594969" to="-131420077#0" modes="public"/>
    </person>
    <person id="ped135" depart="590.03" type="ped_pedestrian">
        <personTrip from="4611696#3" to="171829099#0" modes="public"/>
    </person>
    <person id="ped136" depart="594.40" type="ped_pedestrian">
        <personTrip from="346206372#2" to="566154994" modes="public"/>
    </person>
    <person id="ped137" depart="598.77" type="ped_pedestrian">
        <personTrip from="-454285423#0" to="-369223458#1" modes="public"/>
    </person>
    <person id="ped138" depart="603.14" type="ped_pedestrian">
        <personTrip from="-339201177#3" to="280007140#2" modes="public"/>
    </person>
    <person id="ped139" depart="607.51" type="ped_pedestrian">
        <personTrip from="168940071#2" to="313193879#0" modes="public"/>
    </person>
    <person id="ped140" depart="611.88" type="ped_pedestrian">
        <personTrip from="378662085" to="110464119" modes="public"/>
    </person>
    <person id="ped141" depart="616.25" type="ped_pedestrian">
        <personTrip from="335576646#2" to="164874302" modes="public"/>
    </person>
    <person id="ped142" depart="620.63" type="ped_pedestrian">
        <personTrip from="272757316#0" to="521729368#1" modes="public"/>
    </person>
    <person id="ped143" depart="625.00" type="ped_pedestrian">
        <personTrip from="465376244#1" to="-310176513#0" modes="public"/>
    </person>
    <person id="ped144" depart="629.37" type="ped_pedestrian">
        <personTrip from="24243092#0" to="169195795#1" modes="public"/>
    </person>
    <person id="ped145" depart="633.74" type="ped_pedestrian">
        <personTrip from="-111833186#1" to="43230873#1" modes="public"/>
    </person>
    <person id="ped146" depart="638.11" type="ped_pedestrian">
        <personTrip from="335576652#4" to="15977422#0" modes="public"/>
    </person>
    <person id="ped147" depart="642.48" type="ped_pedestrian">
        <personTrip from="394345496#2" to="280007133" modes="public"/>
    </person>
    <person id="ped148" depart="646.85" type="ped_pedestrian">
        <personTrip from="24509314" to="-132460632#0" modes="public"/>
    </person>
    <person id="ped149" depart="651.22" type="ped_pedestrian">
        <personTrip from="-24913267#1" to="490365295#1" modes="public"/>
    </person>
    <person id="ped150" depart="655.59" type="ped_pedestrian">
        <personTrip from="518508124#6" to="274524375#0" modes="public"/>
    </person>
    <person id="ped151" depart="659.96" type="ped_pedestrian">
        <personTrip from="461526153" to="309489394#1" modes="public"/>
    </person>
    <person id="ped152" depart="664.33" type="ped_pedestrian">
        <personTrip from="-4611693#2" to="-43346200#4" modes="public"/>
    </person>
    <person id="ped153" depart="668.70" type="ped_pedestrian">
        <personTrip from="175885745" to="51235556" modes="public"/>
    </person>
    <person id="ped154" depart="673.07" type="ped_pedestrian">
        <personTrip from="454285423#0" to="475297967#0" modes="public"/>
    </person>
    <person id="ped155" depart="677.44" type="ped_pedestrian">
        <personTrip from="51235555" to="113589280#0" modes="public"/>
    </person>
    <person id="ped156" depart="681.81" type="ped_pedestrian">
        <personTrip from="156364559#0" to="-326116286#1" modes="public"/>
    </person>
    <person id="ped157" depart="686.18" type="ped_pedestrian">
        <personTrip from="437500504#1" to="492027392#1" modes="public"/>
    </person>
    <person id="ped158" depart="690.55" type="ped_pedestrian">
        <personTrip from="23812656#0" to="327519011#1" modes="public"/>
    </person>
    <person id="ped159" depart="694.93" type="ped_pedestrian">
        <personTrip from="-4612968#1" to="557076767#1" modes="public"/>
    </person>
    <person id="ped160" depart="699.30" type="ped_pedestrian">
        <personTrip from="4773029#1" to="66071366#1" modes="public"/>
    </person>
    <person id="ped161" depart="703.67" type="ped_pedestrian">
        <personTrip from="4610600" to="48664717#1" modes="public"/>
    </person>
    <person id="ped162" depart="708.04" type="ped_pedestrian">
        <personTrip from="-15971189" to="388702047#0" modes="public"/>
    </person>
    <person id="ped163" depart="712.41" type="ped_pedestrian">
        <personTrip from="195401010" to="557076770#1" modes="public"/>
    </person>
    <person id="ped164" depart="716.78" type="ped_pedestrian">
        <personTrip from="4610355#0" to="4773027#2" modes="public"/>
    </person>
    <person id="ped165" depart="721.15" type="ped_pedestrian">
        <personTrip from="4610600" to="165415452#0" modes="public"/>
    </person>
    <person id="ped166" depart="725.52" type="ped_pedestrian">
        <personTrip from="440946436#2" to="-339201240#0" modes="public"/>
    </person>
    <person id="ped167" depart="729.89" type="ped_pedestrian">
        <personTrip from="482809610" to="474154190#0" modes="public"/>
    </person>
    <person id="ped168" depart="734.26" type="ped_pedestrian">
        <personTrip from="132460631#0" to="4611696#2" modes="public"/>
    </person>
    <person id="ped169" depart="738.63" type="ped_pedestrian">
        <personTrip from="254523912#1" to="175499828#0" modes="public"/>
    </person>
    <person id="ped170" depart="743.00" type="ped_pedestrian">
        <personTrip from="449982384#1" to="133885750#4" modes="public"/>
    </person>
    <person id="ped171" depart="747.37" type="ped_pedestrian">
        <personTrip from="-156364570#3" to="100405009#2" modes="public"/>
    </person>
    <person id="ped172" depart="751.74" type="ped_pedestrian">
        <personTrip from="195089283" to="4773029#0" modes="public"/>
    </person>
    <person id="ped173" depart="756.11" type="ped_pedestrian">
        <personTrip from="606078067" to="169230291#2" modes="public"/>
    </person>
    <person id="ped174" depart="760.48" type="ped_pedestrian">
        <personTrip from="337139762" to="237520773#4" modes="public"/>
    </person>
    <person id="ped175" depart="764.85" type="ped_pedestrian">
        <personTrip from="72157168#4" to="274513544" modes="public"/>
    </person>
    <person id="ped176" depart="769.23" type="ped_pedestrian">
        <personTrip from="566154996" to="-369223458#0" modes="public"/>
    </person>
    <person id="ped177" depart="773.60" type="ped_pedestrian">
        <personTrip from="61583423#0" to="-576287035" modes="public"/>
    </person>
    <person id="ped178" depart="777.97" type="ped_pedestrian">
        <personTrip from="59334310#1" to="164874307" modes="public"/>
    </person>
    <person id="ped179" depart="782.34" type="ped_pedestrian">
        <personTrip from="-340498976#0" to="24914141#3" modes="public"/>
    </person>
    <person id="ped180" depart="786.71" type="ped_pedestrian">
        <personTrip from="384309031#0" to="181587281" modes="public"/>
    </person>
    <person id="ped181" depart="791.08" type="ped_pedestrian">
        <personTrip from="313323170#1" to="272780734" modes="public"/>
    </person>
    <person id="ped182" depart="795.45" type="ped_pedestrian">
        <personTrip from="230015280" to="305153174" modes="public"/>
    </person>
    <person id="ped183" depart="799.82" type="ped_pedestrian">
        <personTrip from="159482049" to="377494316#1" modes="public"/>
    </person>
    <person id="ped184" depart="804.19" type="ped_pedestrian">
        <personTrip from="-110464118#0" to="553121560" modes="public"/>
    </person>
    <person id="ped185" depart="808.56" type="ped_pedestrian">
        <personTrip from="274513559" to="379797004#3" modes="public"/>
    </person>
    <person id="ped186" depart="812.93" type="ped_pedestrian">
        <personTrip from="394345496#5" to="346212660#1" modes="public"/>
    </person>
    <person id="ped187" depart="817.30" type="ped_pedestrian">
        <personTrip from="202157029#0" to="-24243092#0" modes="public"/>
    </person>
    <person id="ped188" depart="821.67" type="ped_pedestrian">
        <personTrip from="346206377#1" to="195104960#0" modes="public"/>
    </person>
    <person id="ped189" depart="826.04" type="ped_pedestrian">
        <personTrip from="181587282" to="465376251#2" modes="public"/>
    </person>
    <person id="ped190" depart="830.41" type="ped_pedestrian">
        <personTrip from="379904842#0" to="171829099#4" modes="public"/>
    </person>
    <person id="ped191" depart="834.78" type="ped_pedestrian">
        <personTrip from="175885746#4" to="23851897#2" modes="public"/>
    </person>
    <person id="ped192" depart="839.15" type="ped_pedestrian">
        <personTrip from="23755739#0" to="171826985#3" modes="public"/>
    </person>
    <person id="ped193" depart="843.53" type="ped_pedestrian">
        <personTrip from="-43233756" to="24241797#2" modes="public"/>
    </person>
    <person id="ped194" depart="847.90" type="ped_pedestrian">
        <personTrip from="566155001" to="346229516#1" modes="public"/>
    </person>
    <person id="ped195" depart="852.27" type="ped_pedestrian">
        <personTrip from="518508124#2" to="32508498" modes="public"/>
    </person>
    <person id="ped196" depart="856.64" type="ped_pedestrian">
        <personTrip from="171829099#6" to="274524381#0" modes="public"/>
    </person>
    <person id="ped197" depart="861.01" type="ped_pedestrian">
        <personTrip from="-102408133#1" to="170302411" modes="public"/>
    </person>
    <person id="ped198" depart="865.38" type="ped_pedestrian">
        <personTrip from="24540240#4" to="30721662#2" modes="public"/>
    </person>
    <person id="ped199" depart="869.75" type="ped_pedestrian">
        <personTrip from="344595600" to="26322535#0" modes="public"/>
    </person>
    <person id="ped200" depart="874.12" type="ped_pedestrian">