<?xml version="1.0" encoding="UTF-8"?>

<!-- generated on 2023-05-14 01:04:24.563534 by osmWebWizard.py v1_17_0+0274-40679153183
<configuration>
    <net-file value="/home/kobo/.texttest/tmp/tools.14May010341.245704/tools/import/OSM/webWizard/test/osm.net.xml.gz"/>
    <additional-files value="/home/kobo/.texttest/tmp/tools.14May010341.245704/tools/import/OSM/webWizard/test/osm_stops.add.xml,/home/kobo/.texttest/tmp/tools.14May010341.245704/tools/import/OSM/webWizard/test/osm_pt.rou.xml"/>
    <output-trip-file value="/home/kobo/.texttest/tmp/tools.14May010341.245704/tools/import/OSM/webWizard/test/osm.pedestrian.trips.xml"/>
    <route-file value="/home/kobo/.texttest/tmp/tools.14May010341.245704/tools/import/OSM/webWizard/test/osm.pedestrian.rou.xml"/>
    <persontrips value="True"/>
    <persontrip.walk-opposite-factor value="0.8"/>
    <prefix value="ped"/>
    <trip-attributes value="modes=&quot;public&quot;"/>
    <end value="900.0"/>
    <fringe-factor value="1"/>
    <vehicle-class value="pedestrian"/>
    <insertion-density value="4.0"/>
</configuration>
-->

<routes xmlns:xsi="http://www.w3.org/2001/XMLSchema-instance" xsi:noNamespaceSchemaLocation="http://sumo.dlr.de/xsd/routes_file.xsd">
    <vType id="ped_pedestrian" vClass="pedestrian"/>
    <person id="ped0" depart="0.00" type="ped_pedestrian">
        <personTrip from="335576646#0" to="-153692976#0" modes="public"/>
    </person>
    <person id="ped1" depart="4.74" type="ped_pedestrian">
        <personTrip from="159482050#1" to="107747047#1" modes="public"/>
    </person>
    <person id="ped2" depart="9.49" type="ped_pedestrian">
        <personTrip from="38347139" to="346212657" modes="public"/>
    </person>
    <person id="ped3" depart="14.23" type="ped_pedestrian">
        <personTrip from="51167561#0" to="-262407304" modes="public"/>
    </person>
    <person id="ped4" depart="18.97" type="ped_pedestrian">
        <personTrip from="23851922#1" to="-15973619#0" modes="public"/>
    </person>
    <person id="ped5" depart="23.72" type="ped_pedestrian">
        <personTrip from="102408133#0" to="272757337#1" modes="public"/>
    </person>
    <person id="ped6" depart="28.46" type="ped_pedestrian">
        <personTrip from="-153698402" to="-574993713#0" modes="public"/>
    </person>
    <person id="ped7" depart="33.21" type="ped_pedestrian">
        <personTrip from="339201192#0" to="274513544" modes="public"/>
    </person>
    <person id="ped8" depart="37.95" type="ped_pedestrian">
        <personTrip from="104786912#2" to="309489394#1" modes="public"/>
    </person>
    <person id="ped9" depart="42.69" type="ped_pedestrian">
        <personTrip from="4610354" to="-122820534#0" modes="public"/>
    </person>
    <person id="ped10" depart="47.44" type="ped_pedestrian">
        <personTrip from="4570580" to="373866703#1" modes="public"/>
    </person>
    <person id="ped11" depart="52.18" type="ped_pedestrian">
        <personTrip from="194073678" to="-4610362#8" modes="public"/>
    </person>
    <person id="ped12" depart="56.92" type="ped_pedestrian">
        <personTrip from="58881955" to="19002363#4" modes="public"/>
    </person>
    <person id="ped13" depart="61.67" type="ped_pedestrian">
        <personTrip from="-292429056#0" to="-305153174" modes="public"/>
    </person>
    <person id="ped14" depart="66.41" type="ped_pedestrian">
        <personTrip from="465376239" to="312392972#0" modes="public"/>
    </person>
    <person id="ped15" depart="71.16" type="ped_pedestrian">
        <personTrip from="4588219#0" to="379904843#5" modes="public"/>
    </person>
    <person id="ped16" depart="75.90" type="ped_pedestrian">
        <personTrip from="272795498#1" to="61583424#1" modes="public"/>
    </person>
    <person id="ped17" depart="80.64" type="ped_pedestrian">
        <personTrip from="202157029#1" to="274524361#2" modes="public"/>
    </person>
    <person id="ped18" depart="85.39" type="ped_pedestrian">
        <personTrip from="4612961#1" to="31959081#1" modes="public"/>
    </person>
    <person id="ped19" depart="90.13" type="ped_pedestrian">
        <personTrip from="473149645" to="301439025#2" modes="public"/>
    </person>
    <person id="ped20" depart="94.87" type="ped_pedestrian">
        <personTrip from="374734396#1" to="-194069449" modes="public"/>
    </person>
    <person id="ped21" depart="99.62" type="ped_pedestrian">
        <personTrip from="111833186#1" to="168937986#0" modes="public"/>
    </person>
    <person id="ped22" depart="104.36" type="ped_pedestrian">
        <personTrip from="-24242882#0" to="113589281#2" modes="public"/>
    </person>
    <person id="ped23" depart="109.11" type="ped_pedestrian">
        <personTrip from="-310176513#3" to="15968752" modes="public"/>
    </person>
    <person id="ped24" depart="113.85" type="ped_pedestrian">
        <personTrip from="335043665#0" to="202156998#1" modes="public"/>
    </person>
    <person id="ped25" depart="118.59" type="ped_pedestrian">
        <personTrip from="202157014#0" to="-72157168#5" modes="public"/>
    </person>
    <person id="ped26" depart="123.34" type="ped_pedestrian">
        <personTrip from="150634670#2" to="561049083" modes="public"/>
    </person>
    <person id="ped27" depart="128.08" type="ped_pedestrian">
        <personTrip from="339201177#0" to="312651888#1" modes="public"/>
    </person>
    <person id="ped28" depart="132.82" type="ped_pedestrian">
        <personTrip from="-4613304#1" to="379904843#2" modes="public"/>
    </person>
    <person id="ped29" depart="137.57" type="ped_pedestrian">
        <personTrip from="-4611696#3" to="202157030#0" modes="public"/>
    </person>
    <person id="ped30" depart="142.31" type="ped_pedestrian">
        <personTrip from="76865764#3" to="335576646#2" modes="public"/>
    </person>
    <person id="ped31" depart="147.06" type="ped_pedestrian">
        <personTrip from="274524381#0" to="346229516#1" modes="public"/>
    </person>
    <person id="ped32" depart="151.80" type="ped_pedestrian">
        <personTrip from="463898980#5" to="43185680" modes="public"/>
    </person>
    <person id="ped33" depart="156.54" type="ped_pedestrian">
        <personTrip from="112128418#2" to="-164874303" modes="public"/>
    </person>
    <person id="ped34" depart="161.29" type="ped_pedestrian">
        <personTrip from="171826987#0" to="153692976#1" modes="public"/>
    </person>
    <person id="ped35" depart="166.03" type="ped_pedestrian">
        <personTrip from="-7917219#2" to="566155001" modes="public"/>
    </person>
    <person id="ped36" depart="170.77" type="ped_pedestrian">
        <personTrip from="482809616" to="171826986#0" modes="public"/>
    </person>
    <person id="ped37" depart="175.52" type="ped_pedestrian">
        <personTrip from="340498976#6" to="229531165" modes="public"/>
    </person>
    <person id="ped38" depart="180.26" type="ped_pedestrian">
        <personTrip from="523630412" to="254523883" modes="public"/>
    </person>
    <person id="ped39" depart="185.01" type="ped_pedestrian">
        <personTrip from="147066248#1" to="133885749#1" modes="public"/>
    </person>
    <person id="ped40" depart="189.75" type="ped_pedestrian">
        <personTrip from="280007139#0" to="137630049" modes="public"/>
    </person>
    <person id="ped41" depart="194.49" type="ped_pedestrian">
        <personTrip from="30720544#0" to="51167928#5" modes="public"/>
    </person>
    <person id="ped42" depart="199.24" type="ped_pedestrian">
        <personTrip from="230015278" to="104567844" modes="public"/>
    </person>
    <person id="ped43" depart="203.98" type="ped_pedestrian">
        <personTrip from="82659291#2" to="272757343#0" modes="public"/>
    </person>
    <person id="ped44" depart="208.72" type="ped_pedestrian">
        <personTrip from="-284514068" to="-194073677#0" modes="public"/>
    </person>
    <person id="ped45" depart="213.47" type="ped_pedestrian">
        <personTrip from="-32508516#0" to="327519012#4" modes="public"/>
    </person>
    <person id="ped46" depart="218.21" type="ped_pedestrian">
        <personTrip from="440946427" to="23851927#0" modes="public"/>
    </person>
    <person id="ped47" depart="222.96" type="ped_pedestrian">
        <personTrip from="-225400606#1" to="202162473" modes="public"/>
    </person>
    <person id="ped48" depart="227.70" type="ped_pedestrian">
        <personTrip from="82658674#2" to="272795480" modes="public"/>
    </person>
    <person id="ped49" depart="232.44" type="ped_pedestrian">
        <personTrip from="607001337" to="473149641" modes="public"/>
    </person>
    <person id="ped50" depart="237.19" type="ped_pedestrian">
        <personTrip from="-133885745#0" to="377634148#1" modes="public"/>
    </person>
    <person id="ped51" depart="241.93" type="ped_pedestrian">
        <personTrip from="346213313#1" to="272795500#1" modes="public"/>
    </person>
    <person id="ped52" depart="246.67" type="ped_pedestrian">
        <personTrip from="150634670#1" to="335576648#1" modes="public"/>
    </person>
    <person id="ped53" depart="251.42" type="ped_pedestrian">
        <personTrip from="-327735418" to="24243107#2" modes="public"/>
    </person>
    <person id="ped54" depart="256.16" type="ped_pedestrian">
        <personTrip from="254339592#0" to="576310031" modes="public"/>
    </person>
    <person id="ped55" depart="260.91" type="ped_pedestrian">
        <personTrip from="482809614" to="137630051#0" modes="public"/>
    </person>
    <person id="ped56" depart="265.65" type="ped_pedestrian">
        <personTrip from="272757328#1" to="-51167562#1" modes="public"/>
    </person>
    <person id="ped57" depart="270.39" type="ped_pedestrian">
        <personTrip from="52349368#1" to="47986658#1" modes="public"/>
    </person>
    <person id="ped58" depart="275.14" type="ped_pedestrian">
        <personTrip from="169230291#5" to="335576644#2" modes="public"/>
    </person>
    <person id="ped59" depart="279.88" type="ped_pedestrian">
        <personTrip from="312651888#0" to="-4610355#2" modes="public"/>
    </person>
    <person id="ped60" depart="284.62" type="ped_pedestrian">
        <personTrip from="422000253#2" to="272795503#0" modes="public"/>
    </person>
    <person id="ped61" depart="289.37" type="ped_pedestrian">
        <personTrip from="43230873#0" to="272795485" modes="public"/>
    </person>
    <person id="ped62" depart="294.11" type="ped_pedestrian">
        <personTrip from="-100950875#2" to="175499833#0" modes="public"/>
    </person>
    <person id="ped63" depart="298.86" type="ped_pedestrian">
        <personTrip from="-137085417" to="553121565" modes="public"/>
    </person>
    <person id="ped64" depart="303.60" type="ped_pedestrian">
        <personTrip from="483624526#0" to="4612968#2" modes="public"/>
    </person>
    <person id="ped65" depart="308.34" type="ped_pedestrian">
        <personTrip from="170392872" to="-19798506#1" modes="public"/>
    </person>
    <person id="ped66" depart="313.09" type="ped_pedestrian">
        <personTrip from="483624524#1" to="569067828" modes="public"/>
    </person>
    <person id="ped67" depart="317.83" type="ped_pedestrian">
        <personTrip from="-24992424#2" to="272757279" modes="public"/>
    </person>
    <person id="ped68" depart="322.57" type="ped_pedestrian">
        <personTrip from="-23230845#2" to="412936098" modes="public"/>
    </person>
    <person id="ped69" depart="327.32" type="ped_pedestrian">
        <personTrip from="424344289" to="-38208961" modes="public"/>
    </person>
    <person id="ped70" depart="332.06" type="ped_pedestrian">
        <personTrip from="26733828#1" to="274513577#1" modes="public"/>
    </person>
    <person id="ped71" depart="336.81" type="ped_pedestrian">
        <personTrip from="147066248#2" to="47986664#2" modes="public"/>
    </person>
    <person id="ped72" depart="341.55" type="ped_pedestrian">
        <personTrip from="23852027" to="-82658671#0" modes="public"/>
    </person>
    <person id="ped73" depart="346.29" type="ped_pedestrian">
        <personTrip from="272795503#0" to="379904843#5" modes="public"/>
    </person>
    <person id="ped74" depart="351.04" type="ped_pedestrian">
        <personTrip from="-576310033#0" to="171423001#1" modes="public"/>
    </person>
    <person id="ped75" depart="355.78" type="ped_pedestrian">
        <personTrip from="82654055#0" to="339201192#0" modes="public"/>
    </person>
    <person id="ped76" depart="360.52" type="ped_pedestrian">
        <personTrip from="24509314" to="272780730" modes="public"/>
    </person>
    <person id="ped77" depart="365.27" type="ped_pedestrian">
        <personTrip from="-345088524#1" to="108481483#1" modes="public"/>
    </person>
    <person id="ped78" depart="370.01" type="ped_pedestrian">
        <personTrip from="194069449" to="309147331#0" modes="public"/>
    </person>
    <person id="ped79" depart="374.76" type="ped_pedestrian">
        <personTrip from="112128419#1" to="104786912#1" modes="public"/>
    </person>
    <person id="ped80" depart="379.50" type="ped_pedestrian">
        <personTrip from="-237314768" to="330840132" modes="public"/>
    </person>
    <person id="ped81" depart="384.24" type="ped_pedestrian">
        <personTrip from="112128418#2" to="518508124#1" modes="public"/>
    </person>
    <person id="ped82" depart="388.99" type="ped_pedestrian">
        <personTrip from="473149638#0" to="-23443935#1" modes="public"/>
    </person>
    <person id="ped83" depart="393.73" type="ped_pedestrian">
        <personTrip from="122820534#0" to="346206368#5" modes="public"/>
    </person>
    <person id="ped84" depart="398.47" type="ped_pedestrian">
        <personTrip from="-84960597#0" to="-389705415#1" modes="public"/>
    </person>
    <person id="ped85" depart="403.22" type="ped_pedestrian">
        <personTrip from="558292463" to="289830064" modes="public"/>
    </person>
    <person id="ped86" depart="407.96" type="ped_pedestrian">
        <personTrip from="26322553" to="437499013" modes="public"/>
    </person>
    <person id="ped87" depart="412.71" type="ped_pedestrian">
        <personTrip from="4588219#1" to="-534588621#1" modes="public"/>
    </person>
    <person id="ped88" depart="417.45" type="ped_pedestrian">
        <personTrip from="-30720544#0" to="24242882#1" modes="public"/>
    </person>
    <person id="ped89" depart="422.19" type="ped_pedestrian">
        <personTrip from="23852032" to="25959593" modes="public"/>
    </person>
    <person id="ped90" depart="426.94" type="ped_pedestrian">
        <personTrip from="379904843#1" to="346206389#2" modes="public"/>
    </person>
    <person id="ped91" depart="431.68" type="ped_pedestrian">
        <personTrip from="72157169#0" to="-30721660#3" modes="public"/>
    </person>
    <person id="ped92" depart="436.42" type="ped_pedestrian">
        <personTrip from="230969740#1" to="194073677#0" modes="public"/>
    </person>
    <person id="ped93" depart="441.17" type="ped_pedestrian">
        <personTrip from="473149644" to="133895404" modes="public"/>
    </person>
    <person id="ped94" depart="445.91" type="ped_pedestrian">
        <personTrip from="-534588621#0" to="254339581#0" modes="public"/>
    </person>
    <person id="ped95" depart="450.66" type="ped_pedestrian">
        <personTrip from="23851922#1" to="15971196#0" modes="public"/>
    </person>
    <person id="ped96" depart="455.40" type="ped_pedestrian">
        <personTrip from="133957854" to="541763975" modes="public"/>
    </person>
    <person id="ped97" depart="460.14" type="ped_pedestrian">
        <personTrip from="24992424#0" to="473149643" modes="public"/>
    </person>
    <person id="ped98" depart="464.89" type="ped_pedestrian">
        <personTrip from="274513581#0" to="-194962398#0" modes="public"/>
    </person>
    <person id="ped99" depart="469.63" type="ped_pedestrian">
        <personTrip from="83517339" to="4613308#1" modes="public"/>
    </person>
    <person id="ped100" depart="474.37" type="ped_pedestrian">
        <personTrip from="60333313" to="54618192#1" modes="public"/>
    </person>
    <person id="ped101" depart="479.12" type="ped_pedestrian">
        <personTrip from="465376243" to="-4611713#0" modes="public"/>
    </person>
    <person id="ped102" depart="483.86" type="ped_pedestrian">
        <personTrip from="272757278" to="-83517339" modes="public"/>
    </person>
    <person id="ped103" depart="488.61" type="ped_pedestrian">
        <personTrip from="230015285" to="-202157003#0" modes="public"/>
    </person>
    <person id="ped104" depart="493.35" type="ped_pedestrian">
        <personTrip from="202157029#2" to="72157174#1" modes="public"/>
    </person>
    <person id="ped105" depart="498.09" type="ped_pedestrian">
        <personTrip from="147066248#2" to="437499008" modes="public"/>
    </person>
    <person id="ped106" depart="502.84" type="ped_pedestrian">
        <personTrip from="254339598#1" to="23852027" modes="public"/>
    </person>
    <person id="ped107" depart="507.58" type="ped_pedestrian">
        <personTrip from="588960601" to="82654055#1" modes="public"/>
    </person>
    <person id="ped108" depart="512.32" type="ped_pedestrian">
        <personTrip from="274524377#1" to="377634142" modes="public"/>
    </person>
    <person id="ped109" depart="517.07" type="ped_pedestrian">
        <personTrip from="-4610362#5" to="169195795#8" modes="public"/>
    </person>
    <person id="ped110" depart="521.81" type="ped_pedestrian">
        <personTrip from="60333311#2" to="304514893#2" modes="public"/>
    </person>
    <person id="ped111" depart="526.56" type="ped_pedestrian">
        <personTrip from="272810806" to="389102304" modes="public"/>
    </person>
    <person id="ped112" depart="531.30" type="ped_pedestrian">
        <personTrip from="-195411605#0" to="305153174" modes="public"/>
    </person>
    <person id="ped113" depart="536.04" type="ped_pedestrian">
        <personTrip from="272757334#1" to="465376258#1" modes="public"/>
    </person>
    <person id="ped114" depart="540.79" type="ped_pedestrian">
        <personTrip from="-4610476#2" to="59286185#1" modes="public"/>
    </person>
    <person id="ped115" depart="545.53" type="ped_pedestrian">
        <personTrip from="-24242882#1" to="-51236793#0" modes="public"/>
    </person>
    <person id="ped116" depart="550.27" type="ped_pedestrian">
        <personTrip from="31112379#0" to="346212656#3" modes="public"/>
    </person>
    <person id="ped117" depart="555.02" type="ped_pedestrian">
        <personTrip from="114133914#2" to="-344595608#0" modes="public"/>
    </person>
    <person id="ped118" depart="559.76" type="ped_pedestrian">
        <personTrip from="504560726" to="133885747" modes="public"/>
    </person>
    <person id="ped119" depart="564.51" type="ped_pedestrian">
        <personTrip from="310548395" to="31959086#0" modes="public"/>
    </person>
    <person id="ped120" depart="569.25" type="ped_pedestrian">
        <personTrip from="23851897#0" to="305153173" modes="public"/>
    </person>
    <person id="ped121" depart="573.99" type="ped_pedestrian">
        <personTrip from="272780749#0" to="557076775" modes="public"/>
    </person>
    <person id="ped122" depart="578.74" type="ped_pedestrian">
        <personTrip from="-6227658#1" to="377494315" modes="public"/>
    </person>
    <person id="ped123" depart="583.48" type="ped_pedestrian">
        <personTrip from="122820536" to="229531165" modes="public"/>
    </person>
    <person id="ped124" depart="588.22" type="ped_pedestrian">
        <personTrip from="346206381#0" to="170077662#0" modes="public"/>
    </person>
    <person id="ped125" depart="592.97" type="ped_pedestrian">
        <personTrip from="171826987#4" to="397579542" modes="public"/>
    </person>
    <person id="ped126" depart="597.71" type="ped_pedestrian">
        <personTrip from="-23809670#4" to="254523879" modes="public"/>
    </person>
    <person id="ped127" depart="602.46" type="ped_pedestrian">
        <personTrip from="83517334#1" to="82658674#2" modes="public"/>
    </person>
    <person id="ped128" depart="607.20" type="ped_pedestrian">
        <personTrip from="-23852027" to="-83517334#1" modes="public"/>
    </person>
    <person id="ped129" depart="611.94" type="ped_pedestrian">
        <personTrip from="147066248#2" to="557076769" modes="public"/>
    </person>
    <person id="ped130" depart="616.69" type="ped_pedestrian">
        <personTrip from="48435239" to="483624528" modes="public"/>
    </person>
    <person id="ped131" depart="621.43" type="ped_pedestrian">
        <personTrip from="202157013#0" to="-4610476#3" modes="public"/>
    </person>
    <person id="ped132" depart="626.17" type="ped_pedestrian">
        <personTrip from="4612973#0" to="374734394#8" modes="public"/>
    </person>
    <person id="ped133" depart="630.92" type="ped_pedestrian">
        <personTrip from="313193879#1" to="72463266#1" modes="public"/>
    </person>
    <person id="ped134" depart="635.66" type="ped_pedestrian">
        <personTrip from="340498976#1" to="-128396190#1" modes="public"/>
    </person>
    <person id="ped135" depart="640.41" type="ped_pedestrian">
        <personTrip from="4610526" to="170062886" modes="public"/>
    </person>
    <person id="ped136" depart="645.15" type="ped_pedestrian">
        <personTrip from="344595608#0" to="564139999#4" modes="public"/>
    </person>
    <person id="ped137" depart="649.89" type="ped_pedestrian">
        <personTrip from="-409507435#2" to="-339201177#4" modes="public"/>
    </person>
    <person id="ped138" depart="654.64" type="ped_pedestrian">
        <personTrip from="-318915601#0" to="274524370" modes="public"/>
    </person>
    <person id="ped139" depart="659.38" type="ped_pedestrian">
        <personTrip from="158023913#0" to="312392975#0" modes="public"/>
    </person>
    <person id="ped140" depart="664.12" type="ped_pedestrian">
        <personTrip from="377634139" to="-61585625" modes="public"/>
    </person>
    <person id="ped141" depart="668.87" type="ped_pedestrian">
        <personTrip from="335043657" to="137630051#2" modes="public"/>
    </person>
    <person id="ped142" depart="673.61" type="ped_pedestrian">
        <personTrip from="272757291" to="518508124#1" modes="public"/>
    </person>
    <person id="ped143" depart="678.36" type="ped_pedestrian">
        <personTrip from="46517262#6" to="-285825378#2" modes="public"/>
    </person>
    <person id="ped144" depart="683.10" type="ped_pedestrian">
        <personTrip from="23852032" to="15968749#0" modes="public"/>
    </person>
    <person id="ped145" depart="687.84" type="ped_pedestrian">
        <personTrip from="-111833185#0" to="428486925" modes="public"/>
    </person>
    <person id="ped146" depart="692.59" type="ped_pedestrian">
        <personTrip from="335043668#1" to="137630046" modes="public"/>
    </person>
    <person id="ped147" depart="697.33" type="ped_pedestrian">
        <personTrip from="388702039#6" to="274524361#1" modes="public"/>
    </person>
    <person id="ped148" depart="702.07" type="ped_pedestrian">
        <personTrip from="23852046#1" to="-132460631#0" modes="public"/>
    </person>
    <person id="ped149" depart="706.82" type="ped_pedestrian">
        <personTrip from="-23852041#1" to="48524700" modes="public"/>
    </person>
    <person id="ped150" depart="711.56" type="ped_pedestrian">
        <personTrip from="518508119#0" to="274513551" modes="public"/>
    </person>
    <person id="ped151" depart="716.31" type="ped_pedestrian">
        <personTrip from="4612974#1" to="304987178#0" modes="public"/>
    </person>
    <person id="ped152" depart="721.05" type="ped_pedestrian">
        <personTrip from="-454285423#3" to="-377215961#0" modes="public"/>
    </person>
    <person id="ped153" depart="725.79" type="ped_pedestrian">
        <personTrip from="170852441" to="51167933" modes="public"/>
    </person>
    <person id="ped154" depart="730.54" type="ped_pedestrian">
        <personTrip from="442577412#2" to="473149641" modes="public"/>
    </person>
    <person id="ped155" depart="735.28" type="ped_pedestrian">
        <personTrip from="51167932#2" to="-72157175#1" modes="public"/>
    </person>
    <person id="ped156" depart="740.02" type="ped_pedestrian">
        <personTrip from="133957852" to="-31112379#0" modes="public"/>
    </person>
    <person id="ped157" depart="744.77" type="ped_pedestrian">
        <personTrip from="43233756" to="485708460" modes="public"/>
    </person>
    <person id="ped158" depart="749.51" type="ped_pedestrian">
        <personTrip from="23230845#4" to="320454752" modes="public"/>
    </person>
    <person id="ped159" depart="754.26" type="ped_pedestrian">
        <personTrip from="-4610362#5" to="553121566#2" modes="public"/>
    </person>
    <person id="ped160" depart="759.00" type="ped_pedestrian">
        <personTrip from="475297968#1" to="61670659" modes="public"/>
    </person>
    <person id="ped161" depart="763.74" type="ped_pedestrian">
        <personTrip from="4610361" to="48435264" modes="public"/>
    </person>
    <person id="ped162" depart="768.49" type="ped_pedestrian">
        <personTrip from="-153692976#0" to="384309028" modes="public"/>
    </person>
    <person id="ped163" depart="773.23" type="ped_pedestrian">
        <personTrip from="181587284#0" to="553649891#0" modes="public"/>
    </person>
    <person id="ped164" depart="777.97" type="ped_pedestrian">
        <personTrip from="449982384#0" to="475297967#1" modes="public"/>
    </person>
    <person id="ped165" depart="782.72" type="ped_pedestrian">
        <personTrip from="4610355#3" to="150634670#1" modes="public"/>
    </person>
    <person id="ped166" depart="787.46" type="ped_pedestrian">
        <personTrip from="437500504#0" to="-31959086#1" modes="public"/>
    </person>
    <person id="ped167" depart="792.21" type="ped_pedestrian">
        <personTrip from="47986664#1" to="470403276" modes="public"/>
    </person>
    <person id="ped168" depart="796.95" type="ped_pedestrian">
        <personTrip from="105742457" to="4610525#0" modes="public"/>
    </person>
    <person id="ped169" depart="801.69" type="ped_pedestrian">
        <personTrip from="254523889" to="170098545#5" modes="public"/>
    </person>
    <person id="ped170" depart="806.44" type="ped_pedestrian">
        <personTrip from="442389818#1" to="111833186#0" modes="public"/>
    </person>
    <person id="ped171" depart="811.18" type="ped_pedestrian">
        <personTrip from="-147066248#5" to="-55494203" modes="public"/>
    </person>
    <person id="ped172" depart="815.92" type="ped_pedestrian">
        <personTrip from="175885747#0" to="475297968#0" modes="public"/>
    </person>
    <person id="ped173" depart="820.67" type="ped_pedestrian">
        <personTrip from="59334310#5" to="15971197" modes="public"/>
    </person>
    <person id="ped174" depart="825.41" type="ped_pedestrian">
        <personTrip from="335576650#1" to="230015279" modes="public"/>
    </person>
    <person id="ped175" depart="830.16" type="ped_pedestrian">
        <personTrip from="68647306#2" to="272795498#1" modes="public"/>
    </person>
    <person id="ped176" depart="834.90" type="ped_pedestrian">
        <personTrip from="564139999#5" to="-339201177#4" modes="public"/>
    </person>
    <person id="ped177" depart="839.64" type="ped_pedestrian">
        <personTrip from="606078069#0" to="-51167562#1" modes="public"/>
    </person>
    <person id="ped178" depart="844.39" type="ped_pedestrian">
        <personTrip from="59286194#2" to="147066248#3" modes="public"/>
    </person>
    <person id="ped179" depart="849.13" type="ped_pedestrian">
        <personTrip from="-31959087#0" to="24243107#2" modes="public"/>
    </person>
    <person id="ped180" depart="853.87" type="ped_pedestrian">
        <personTrip from="379904843#0" to="171826985#0" modes="public"/>
    </person>
    <person id="ped181" depart="858.62" type="ped_pedestrian">
        <personTrip from="312392977#1" to="272757346#0" modes="public"/>
    </person>
    <person id="ped182" depart="863.36" type="ped_pedestrian">
        <personTrip from="205728152#3" to="301439025#0" modes="public"/>
    </person>
    <person id="ped183" depart="868.11" type="ped_pedestrian">
        <personTrip from="137085411#2" to="375901779#1" modes="public"/>
    </person>
    <person id="ped184" depart="872.85" type="ped_pedestrian">
        <personTrip from="-104991251" to="541864434#0" modes="public"/>
    </person>
    <person id="ped185" depart="877.59" type="ped_pedestrian">
        <personTrip from="272795502#1" to="377634146" modes="public"/>
    </person>
    <person id="ped186" depart="882.34" type="ped_pedestrian">
        <personTrip from="388702039#9" to="346206377#0" modes="public"/>
    </person>
    <person id="ped187" depart="887.08" type="ped_pedestrian">
        <personTrip from="202156997#0" to="-23230845#4" modes="public"/>
    </person>
    <person id="ped188" depart="891.82" type="ped_pedestrian">
        <personTrip from="345088393#1" to="176043807#0" modes="public"/>
    </person>
    <person id="ped189" depart="896.57" type="ped_pedestrian">
        <personTrip from="171826985#1" to="465376240" modes="public"/>
    </person>
</routes>
