<?xml version="1.0" encoding="UTF-8"?>
<!-- generated on 2019-09-27 13:52:19.100529 by $Id$
  options: <doubleminus>test-output test
-->
<routes xmlns:xsi="http://www.w3.org/2001/XMLSchema-instance" xsi:noNamespaceSchemaLocation="http://sumo.dlr.de/xsd/routes_file.xsd">
    <vType id="ped_pedestrian" vClass="pedestrian"/>
    <person id="ped0" depart="0.00" type="ped_pedestrian">
        <personTrip from="335703512" to="-15973619#0" modes="public"/>
    </person>
    <person id="ped1" depart="4.38" type="ped_pedestrian">
        <personTrip from="169195795#10" to="133885746#0" modes="public"/>
    </person>
    <person id="ped2" depart="8.77" type="ped_pedestrian">
        <personTrip from="388702041#9" to="346229515#2" modes="public"/>
    </person>
    <person id="ped3" depart="13.15" type="ped_pedestrian">
        <personTrip from="51167926" to="-305153174" modes="public"/>
    </person>
    <person id="ped4" depart="17.54" type="ped_pedestrian">
        <personTrip from="24243107#1" to="-168940071#2" modes="public"/>
    </person>
    <person id="ped5" depart="21.92" type="ped_pedestrian">
        <personTrip from="131420077#1" to="272757349#1" modes="public"/>
    </person>
    <person id="ped6" depart="26.31" type="ped_pedestrian">
        <personTrip from="-15973619#6" to="107747047#2" modes="public"/>
    </person>
    <person id="ped7" depart="30.69" type="ped_pedestrian">
        <personTrip from="340498976#7" to="274524379#0" modes="public"/>
    </person>
    <person id="ped8" depart="35.08" type="ped_pedestrian">
        <personTrip from="132460630" to="31112516#0" modes="public"/>
    </person>
    <person id="ped9" depart="39.46" type="ped_pedestrian">
        <personTrip from="4610526" to="-128396189#1" modes="public"/>
    </person>
    <person id="ped10" depart="43.84" type="ped_pedestrian">
        <personTrip from="4610375" to="374734396#3" modes="public"/>
    </person>
    <person id="ped11" depart="48.23" type="ped_pedestrian">
        <personTrip from="196850622#2" to="-4613299#2" modes="public"/>
    </person>
    <person id="ped12" depart="52.61" type="ped_pedestrian">
        <personTrip from="59286188#1" to="196850608#1" modes="public"/>
    </person>
    <person id="ped13" depart="57.00" type="ped_pedestrian">
        <personTrip from="-310177222#2" to="-316746323#1" modes="public"/>
    </person>
    <person id="ped14" depart="61.38" type="ped_pedestrian">
        <personTrip from="465376252" to="312711508#2" modes="public"/>
    </person>
    <person id="ped15" depart="65.77" type="ped_pedestrian">
        <personTrip from="4610476#1" to="38711947#0" modes="public"/>
    </person>
    <person id="ped16" depart="70.15" type="ped_pedestrian">
        <personTrip from="274513559" to="61670659" modes="public"/>
    </person>
    <person id="ped17" depart="74.53" type="ped_pedestrian">
        <personTrip from="229531161#0" to="280007142#1" modes="public"/>
    </person>
    <person id="ped18" depart="78.92" type="ped_pedestrian">
        <personTrip from="4613295#1" to="327519007" modes="public"/>
    </person>
    <person id="ped19" depart="83.30" type="ped_pedestrian">
        <personTrip from="4773024#1" to="30721660#1" modes="public"/>
    </person>
    <person id="ped20" depart="87.69" type="ped_pedestrian">
        <personTrip from="37679530" to="-194962998#1" modes="public"/>
    </person>
    <person id="ped21" depart="92.07" type="ped_pedestrian">
        <personTrip from="134021300#2" to="170852468" modes="public"/>
    </person>
    <person id="ped22" depart="96.46" type="ped_pedestrian">
        <personTrip from="-268002745" to="137085411#4" modes="public"/>
    </person>
    <person id="ped23" depart="100.84" type="ped_pedestrian">
        <personTrip from="-326116286#2" to="169230291#5" modes="public"/>
    </person>
    <person id="ped24" depart="105.23" type="ped_pedestrian">
        <personTrip from="335576648#0" to="202157031#3" modes="public"/>
    </person>
    <person id="ped25" depart="109.61" type="ped_pedestrian">
        <personTrip from="221315511" to="113589281#0" modes="public"/>
    </person>
    <person id="ped26" depart="113.99" type="ped_pedestrian">
        <personTrip from="165832575" to="566154986" modes="public"/>
    </person>
    <person id="ped27" depart="118.38" type="ped_pedestrian">
        <personTrip from="339201248" to="315392489" modes="public"/>
    </person>
    <person id="ped28" depart="122.76" type="ped_pedestrian">
        <personTrip from="-558292461" to="384309031#1" modes="public"/>
    </person>
    <person id="ped29" depart="127.15" type="ped_pedestrian">
        <personTrip from="-51167934#0" to="22954356#0" modes="public"/>
    </person>
    <person id="ped30" depart="131.53" type="ped_pedestrian">
        <personTrip from="82168044" to="335703513#1" modes="public"/>
    </person>
    <person id="ped31" depart="135.92" type="ped_pedestrian">
        <personTrip from="28258879#1" to="360464647" modes="public"/>
    </person>
    <person id="ped32" depart="140.30" type="ped_pedestrian">
        <personTrip from="465218216" to="437325048#0" modes="public"/>
    </person>
    <person id="ped33" depart="144.69" type="ped_pedestrian">
        <personTrip from="134021303" to="-169660686#0" modes="public"/>
    </person>
    <person id="ped34" depart="149.07" type="ped_pedestrian">
        <personTrip from="188046016#0" to="16873017#0" modes="public"/>
    </person>
    <person id="ped35" depart="153.45" type="ped_pedestrian">
        <personTrip from="114133910#0" to="569067824#1" modes="public"/>
    </person>
    <person id="ped36" depart="157.84" type="ped_pedestrian">
        <personTrip from="4840977#0" to="188044903#0" modes="public"/>
    </person>
    <person id="ped37" depart="162.22" type="ped_pedestrian">
        <personTrip from="344595600" to="237314768" modes="public"/>
    </person>
    <person id="ped38" depart="166.61" type="ped_pedestrian">
        <personTrip from="533594857" to="25959559#1" modes="public"/>
    </person>
    <person id="ped39" depart="170.99" type="ped_pedestrian">
        <personTrip from="165415452#0" to="155186522" modes="public"/>
    </person>
    <person id="ped40" depart="175.38" type="ped_pedestrian">
        <personTrip from="289966281" to="164874304" modes="public"/>
    </person>
    <person id="ped41" depart="179.76" type="ped_pedestrian">
        <personTrip from="310176513#4" to="51234180" modes="public"/>
    </person>
    <person id="ped42" depart="184.14" type="ped_pedestrian">
        <personTrip from="237522574#0" to="131505631#1" modes="public"/>
    </person>
    <person id="ped43" depart="188.53" type="ped_pedestrian">
        <personTrip from="83517334#1" to="272780735" modes="public"/>
    </person>
    <person id="ped44" depart="192.91" type="ped_pedestrian">
        <personTrip from="-310176513#3" to="-195089288#2" modes="public"/>
    </person>
    <person id="ped45" depart="197.30" type="ped_pedestrian">
        <personTrip from="-34848160#0" to="330840135" modes="public"/>
    </person>
    <person id="ped46" depart="201.68" type="ped_pedestrian">
        <personTrip from="449849679#1" to="24243107#2" modes="public"/>
    </person>
    <person id="ped47" depart="206.07" type="ped_pedestrian">
        <personTrip from="-23755950#3" to="22972473#0" modes="public"/>
    </person>
    <person id="ped48" depart="210.45" type="ped_pedestrian">
        <personTrip from="83387877" to="272795503#0" modes="public"/>
    </person>
    <person id="ped49" depart="214.84" type="ped_pedestrian">
        <personTrip from="61584187#1" to="475297968#1" modes="public"/>
    </person>
    <person id="ped50" depart="219.22" type="ped_pedestrian">
        <personTrip from="-133885749#0" to="379904843#1" modes="public"/>
    </person>
    <person id="ped51" depart="223.60" type="ped_pedestrian">
        <personTrip from="35269774#3" to="274513565#0" modes="public"/>
    </person>
    <person id="ped52" depart="227.99" type="ped_pedestrian">
        <personTrip from="165832574#2" to="335704573" modes="public"/>
    </person>
    <person id="ped53" depart="232.37" type="ped_pedestrian">
        <personTrip from="-35578576#0" to="24992424#4" modes="public"/>
    </person>
    <person id="ped54" depart="236.76" type="ped_pedestrian">
        <personTrip from="254523891" to="588960602" modes="public"/>
    </person>
    <person id="ped55" depart="241.14" type="ped_pedestrian">
        <personTrip from="4840974#1" to="164874307" modes="public"/>
    </person>
    <person id="ped56" depart="245.53" type="ped_pedestrian">
        <personTrip from="272757343#0" to="-606078069#2" modes="public"/>
    </person>
    <person id="ped57" depart="249.91" type="ped_pedestrian">
        <personTrip from="529397372" to="48095588#2" modes="public"/>
    </person>
    <person id="ped58" depart="254.29" type="ped_pedestrian">
        <personTrip from="171829099#4" to="335703511#0" modes="public"/>
    </person>
    <person id="ped59" depart="258.68" type="ped_pedestrian">
        <personTrip from="315245296#1" to="-4612968#3" modes="public"/>
    </person>
    <person id="ped60" depart="263.06" type="ped_pedestrian">
        <personTrip from="427637455#0" to="274513581#0" modes="public"/>
    </person>
    <person id="ped61" depart="267.45" type="ped_pedestrian">
        <personTrip from="437500499" to="272795506#1" modes="public"/>
    </person>
    <person id="ped62" depart="271.83" type="ped_pedestrian">
        <personTrip from="-104991251" to="194952583" modes="public"/>
    </person>
    <person id="ped63" depart="276.22" type="ped_pedestrian">
        <personTrip from="-147066248#3" to="556076653" modes="public"/>
    </person>
    <person id="ped64" depart="280.60" type="ped_pedestrian">
        <personTrip from="48435510" to="4613308#1" modes="public"/>
    </person>
    <person id="ped65" depart="284.99" type="ped_pedestrian">
        <personTrip from="175885747#0" to="-22972473#1" modes="public"/>
    </person>
    <person id="ped66" depart="289.37" type="ped_pedestrian">
        <personTrip from="48435427" to="574144564" modes="public"/>
    </person>
    <person id="ped67" depart="293.75" type="ped_pedestrian">
        <personTrip from="-292429063#1" to="272757314" modes="public"/>
    </person>
    <person id="ped68" depart="298.14" type="ped_pedestrian">
        <personTrip from="-24243092#0" to="424344316" modes="public"/>
    </person>
    <person id="ped69" depart="302.52" type="ped_pedestrian">
        <personTrip from="43159542" to="-4402014#0" modes="public"/>
    </person>
    <person id="ped70" depart="306.91" type="ped_pedestrian">
        <personTrip from="272757269" to="280007138" modes="public"/>
    </person>
    <person id="ped71" depart="311.29" type="ped_pedestrian">
        <personTrip from="165415454#0" to="482809615" modes="public"/>
    </person>
    <person id="ped72" depart="315.68" type="ped_pedestrian">
        <personTrip from="24273323#3" to="114133914#1" modes="public"/>
    </person>
    <person id="ped73" depart="320.06" type="ped_pedestrian">
        <personTrip from="274513581#0" to="38711947#1" modes="public"/>
    </person>
    <person id="ped74" depart="324.45" type="ped_pedestrian">
        <personTrip from="109902441#1" to="181587281" modes="public"/>
    </person>
    <person id="ped75" depart="328.83" type="ped_pedestrian">
        <personTrip from="82659291#0" to="340498976#7" modes="public"/>
    </person>
    <person id="ped76" depart="333.21" type="ped_pedestrian">
        <personTrip from="25294731#0" to="272780762#1" modes="public"/>
    </person>
    <person id="ped77" depart="337.60" type="ped_pedestrian">
        <personTrip from="-410310755#3" to="133885749#3" modes="public"/>
    </person>
    <person id="ped78" depart="341.98" type="ped_pedestrian">
        <personTrip from="196850611" to="310357284#1" modes="public"/>
    </person>
    <person id="ped79" depart="346.37" type="ped_pedestrian">
        <personTrip from="136571494#3" to="131765141#1" modes="public"/>
    </person>
    <person id="ped80" depart="350.75" type="ped_pedestrian">
        <personTrip from="-243854725#1" to="335043665#1" modes="public"/>
    </person>
    <person id="ped81" depart="355.14" type="ped_pedestrian">
        <personTrip from="134021303" to="52328295#0" modes="public"/>
    </person>
    <person id="ped82" depart="359.52" type="ped_pedestrian">
        <personTrip from="475297966" to="-243854725#1" modes="public"/>
    </person>
    <person id="ped83" depart="363.90" type="ped_pedestrian">
        <personTrip from="137085434#3" to="346212656#3" modes="public"/>
    </person>
    <person id="ped84" depart="368.29" type="ped_pedestrian">
        <personTrip from="121717657#1" to="-454285423#0" modes="public"/>
    </person>
    <person id="ped85" depart="372.67" type="ped_pedestrian">
        <personTrip from="564139999#3" to="304514893#3" modes="public"/>
    </person>
    <person id="ped86" depart="377.06" type="ped_pedestrian">
        <personTrip from="272757260" to="4403559#0" modes="public"/>
    </person>
    <person id="ped87" depart="381.44" type="ped_pedestrian">
        <personTrip from="4610476#3" to="100113532" modes="public"/>
    </person>
    <person id="ped88" depart="385.83" type="ped_pedestrian">
        <personTrip from="-316746323#1" to="24913524#1" modes="public"/>
    </person>
    <person id="ped89" depart="390.21" type="ped_pedestrian">
        <personTrip from="243854725#0" to="266572299#1" modes="public"/>
    </person>
    <person id="ped90" depart="394.60" type="ped_pedestrian">
        <personTrip from="384309031#1" to="346213311#3" modes="public"/>
    </person>
    <person id="ped91" depart="398.98" type="ped_pedestrian">
        <personTrip from="72463266#0" to="-31959089" modes="public"/>
    </person>
    <person id="ped92" depart="403.36" type="ped_pedestrian">
        <personTrip from="23809670#5" to="196850621" modes="public"/>
    </person>
    <person id="ped93" depart="407.75" type="ped_pedestrian">
        <personTrip from="4773024#0" to="156364559#3" modes="public"/>
    </person>
    <person id="ped94" depart="412.13" type="ped_pedestrian">
        <personTrip from="100113532" to="254523863#1" modes="public"/>
    </person>
    <person id="ped95" depart="416.52" type="ped_pedestrian">
        <personTrip from="24243107#1" to="169660686#1" modes="public"/>
    </person>
    <person id="ped96" depart="420.90" type="ped_pedestrian">
        <personTrip from="156364566#1" to="54698846#0" modes="public"/>
    </person>
    <person id="ped97" depart="425.29" type="ped_pedestrian">
        <personTrip from="254339584" to="4773023#1" modes="public"/>
    </person>
    <person id="ped98" depart="429.67" type="ped_pedestrian">
        <personTrip from="280007139#1" to="-196850606#0" modes="public"/>
    </person>
    <person id="ped99" depart="434.06" type="ped_pedestrian">
        <personTrip from="84960597#0" to="463829477#0" modes="public"/>
    </person>
    <person id="ped100" depart="438.44" type="ped_pedestrian">
        <personTrip from="61579356" to="553121566#2" modes="public"/>
    </person>
    <person id="ped101" depart="442.82" type="ped_pedestrian">
        <personTrip from="465376257#1" to="-52328295#1" modes="public"/>
    </person>
    <person id="ped102" depart="447.21" type="ped_pedestrian">
        <personTrip from="272757311" to="120675240#1" modes="public"/>
    </person>
    <person id="ped103" depart="451.59" type="ped_pedestrian">
        <personTrip from="23755950#0" to="-23121445#1" modes="public"/>
    </person>
    <person id="ped104" depart="455.98" type="ped_pedestrian">
        <personTrip from="229531161#1" to="72463267#3" modes="public"/>
    </person>
    <person id="ped105" depart="460.36" type="ped_pedestrian">
        <personTrip from="165415454#0" to="4402014#3" modes="public"/>
    </person>
    <person id="ped106" depart="464.75" type="ped_pedestrian">
        <personTrip from="254523899" to="24273323#2" modes="public"/>
    </person>
    <person id="ped107" depart="469.13" type="ped_pedestrian">
        <personTrip from="59286188#1" to="82659291#2" modes="public"/>
    </person>
    <person id="ped108" depart="473.51" type="ped_pedestrian">
        <personTrip from="28120501#1" to="378662088#0" modes="public"/>
    </person>
    <person id="ped109" depart="477.90" type="ped_pedestrian">
        <personTrip from="-4613299#0" to="171829093" modes="public"/>
    </person>
    <person id="ped110" depart="482.28" type="ped_pedestrian">
        <personTrip from="61579355" to="30721662#3" modes="public"/>
    </person>
    <person id="ped111" depart="486.67" type="ped_pedestrian">
        <personTrip from="274524370" to="409506039#0" modes="public"/>
    </person>
    <person id="ped112" depart="491.05" type="ped_pedestrian">
        <personTrip from="-22954356#4" to="310176513#2" modes="public"/>
    </person>
    <person id="ped113" depart="495.44" type="ped_pedestrian">
        <personTrip from="272757346#1" to="466923185" modes="public"/>
    </person>
    <person id="ped114" depart="499.82" type="ped_pedestrian">
        <personTrip from="-47016368#1" to="59287095#1" modes="public"/>
    </person>
    <person id="ped115" depart="504.21" type="ped_pedestrian">
        <personTrip from="-268002748#0" to="-82652816" modes="public"/>
    </person>
    <person id="ped116" depart="508.59" type="ped_pedestrian">
        <personTrip from="312392966#0" to="346213313#1" modes="public"/>
    </person>
    <person id="ped117" depart="512.97" type="ped_pedestrian">
        <personTrip from="137085425" to="-409506039#1" modes="public"/>
    </person>
    <person id="ped118" depart="517.36" type="ped_pedestrian">
        <personTrip from="51167561#1" to="153698394#2" modes="public"/>
    </person>
    <person id="ped119" depart="521.74" type="ped_pedestrian">
        <personTrip from="312357351" to="327519009#0" modes="public"/>
    </person>
    <person id="ped120" depart="526.13" type="ped_pedestrian">
        <personTrip from="24242882#2" to="310176513#0" modes="public"/>
    </person>
    <person id="ped121" depart="530.51" type="ped_pedestrian">
        <personTrip from="272795492" to="562707499" modes="public"/>
    </person>
    <person id="ped122" depart="534.90" type="ped_pedestrian">
        <personTrip from="111833186#1" to="378658639" modes="public"/>
    </person>
    <person id="ped123" depart="539.28" type="ped_pedestrian">
        <personTrip from="137630045" to="237519482" modes="public"/>
    </person>
    <person id="ped124" depart="543.66" type="ped_pedestrian">
        <personTrip from="346212660#2" to="172283961" modes="public"/>
    </person>
    <person id="ped125" depart="548.05" type="ped_pedestrian">
        <personTrip from="188386313#1" to="410310757" modes="public"/>
    </person>
    <person id="ped126" depart="552.43" type="ped_pedestrian">
        <personTrip from="-24913267#0" to="254523912#1" modes="public"/>
    </person>
    <person id="ped127" depart="556.82" type="ped_pedestrian">
        <personTrip from="83517336#3" to="83387877" modes="public"/>
    </person>
    <person id="ped128" depart="561.20" type="ped_pedestrian">
        <personTrip from="-24913267#3" to="11549897" modes="public"/>
    </person>
    <person id="ped129" depart="565.59" type="ped_pedestrian">
        <personTrip from="165415454#0" to="561049080" modes="public"/>
    </person>
    <person id="ped130" depart="569.97" type="ped_pedestrian">
        <personTrip from="48664717#1" to="48524801#1" modes="public"/>
    </person>
    <person id="ped131" depart="574.36" type="ped_pedestrian">
        <personTrip from="217531415" to="-474154200" modes="public"/>
    </person>
    <person id="ped132" depart="578.74" type="ped_pedestrian">
        <personTrip from="461526153" to="375901786" modes="public"/>
    </person>
    <person id="ped133" depart="583.12" type="ped_pedestrian">
        <personTrip from="318282850#0" to="7917219#1" modes="public"/>
    </person>
    <person id="ped134" depart="587.51" type="ped_pedestrian">
        <personTrip from="344594961" to="-131420077#0" modes="public"/>
    </person>
    <person id="ped135" depart="591.89" type="ped_pedestrian">
        <personTrip from="4611696#4" to="172274775" modes="public"/>
    </person>
    <person id="ped136" depart="596.28" type="ped_pedestrian">
        <personTrip from="346206368#6" to="566154998" modes="public"/>
    </person>
    <person id="ped137" depart="600.66" type="ped_pedestrian">
        <personTrip from="-4588217#5" to="-377215961#0" modes="public"/>
    </person>
    <person id="ped138" depart="605.05" type="ped_pedestrian">
        <personTrip from="-340498976#2" to="280007142#6" modes="public"/>
    </person>
    <person id="ped139" depart="609.43" type="ped_pedestrian">
        <personTrip from="169067264#0" to="31313667#3" modes="public"/>
    </person>
    <person id="ped140" depart="613.82" type="ped_pedestrian">
        <personTrip from="378662084" to="111833185#0" modes="public"/>
    </person>
    <person id="ped141" depart="618.20" type="ped_pedestrian">
        <personTrip from="335576644#2" to="164874309#0" modes="public"/>
    </person>
    <person id="ped142" depart="622.58" type="ped_pedestrian">
        <personTrip from="272757319#1" to="52328295#0" modes="public"/>
    </person>
    <person id="ped143" depart="626.97" type="ped_pedestrian">
        <personTrip from="465376250#0" to="-310177222#0" modes="public"/>
    </person>
    <person id="ped144" depart="631.35" type="ped_pedestrian">
        <personTrip from="243854725#0" to="169230291#0" modes="public"/>
    </person>
    <person id="ped145" depart="635.74" type="ped_pedestrian">
        <personTrip from="-111833186#1" to="43230873#0" modes="public"/>
    </person>
    <person id="ped146" depart="640.12" type="ped_pedestrian">
        <personTrip from="335576652#1" to="164874301" modes="public"/>
    </person>
    <person id="ped147" depart="644.51" type="ped_pedestrian">
        <personTrip from="394345496#2" to="280007140#5" modes="public"/>
    </person>
    <person id="ped148" depart="648.89" type="ped_pedestrian">
        <personTrip from="24540240#5" to="-132460632#0" modes="public"/>
    </person>
    <person id="ped149" depart="653.27" type="ped_pedestrian">
        <personTrip from="-24992424#5" to="492027392#0" modes="public"/>
    </person>
    <person id="ped150" depart="657.66" type="ped_pedestrian">
        <personTrip from="519881010" to="274524379#2" modes="public"/>
    </person>
    <person id="ped151" depart="662.04" type="ped_pedestrian">
        <personTrip from="463829469#1" to="309489394#1" modes="public"/>
    </person>
    <person id="ped152" depart="666.43" type="ped_pedestrian">
        <personTrip from="-4611706#0" to="-437325051#1" modes="public"/>
    </person>
    <person id="ped153" depart="670.81" type="ped_pedestrian">
        <personTrip from="175885747#4" to="51236794" modes="public"/>
    </person>
    <person id="ped154" depart="675.20" type="ped_pedestrian">
        <personTrip from="454285423#0" to="475297968#1" modes="public"/>
    </person>
    <person id="ped155" depart="679.58" type="ped_pedestrian">
        <personTrip from="51236793#1" to="113589281#2" modes="public"/>
    </person>
    <person id="ped156" depart="683.97" type="ped_pedestrian">
        <personTrip from="156364559#6" to="-33036326" modes="public"/>
    </person>
    <person id="ped157" depart="688.35" type="ped_pedestrian">
        <personTrip from="437500504#0" to="492609985" modes="public"/>
    </person>
    <person id="ped158" depart="692.73" type="ped_pedestrian">
        <personTrip from="23851905" to="327519011#0" modes="public"/>
    </person>
    <person id="ped159" depart="697.12" type="ped_pedestrian">
        <personTrip from="-4613293" to="557076769" modes="public"/>
    </person>
    <person id="ped160" depart="701.50" type="ped_pedestrian">
        <personTrip from="4773463#1" to="66071366#2" modes="public"/>
    </person>
    <person id="ped161" depart="705.89" type="ped_pedestrian">
        <personTrip from="4610607" to="488668301" modes="public"/>
    </person>
    <person id="ped162" depart="710.27" type="ped_pedestrian">
        <personTrip from="-15971189" to="388702041#9" modes="public"/>
    </person>
    <person id="ped163" depart="714.66" type="ped_pedestrian">
        <personTrip from="195401017#0" to="557076772" modes="public"/>
    </person>
    <person id="ped164" depart="719.04" type="ped_pedestrian">
        <personTrip from="4610354" to="4773029#1" modes="public"/>
    </person>
    <person id="ped165" depart="723.43" type="ped_pedestrian">
        <personTrip from="4610607" to="165832574#2" modes="public"/>
    </person>
    <person id="ped166" depart="727.81" type="ped_pedestrian">
        <personTrip from="440946436#1" to="-340498976#7" modes="public"/>
    </person>
    <person id="ped167" depart="732.19" type="ped_pedestrian">
        <personTrip from="482809614" to="474154191#1" modes="public"/>
    </person>
    <person id="ped168" depart="736.58" type="ped_pedestrian">
        <personTrip from="133885743#1" to="4611696#3" modes="public"/>
    </person>
    <person id="ped169" depart="740.96" type="ped_pedestrian">
        <personTrip from="260138638#3" to="175506753#0" modes="public"/>
    </person>
    <person id="ped170" depart="745.35" type="ped_pedestrian">
        <personTrip from="449982384#1" to="134021300#1" modes="public"/>
    </person>
    <person id="ped171" depart="749.73" type="ped_pedestrian">
        <personTrip from="-156364570#3" to="100944802#3" modes="public"/>
    </person>
    <person id="ped172" depart="754.12" type="ped_pedestrian">
        <personTrip from="195104956" to="4773463#0" modes="public"/>
    </person>
    <person id="ped173" depart="758.50" type="ped_pedestrian">
        <personTrip from="606078071#0" to="170062886" modes="public"/>
    </person>
    <person id="ped174" depart="762.88" type="ped_pedestrian">
        <personTrip from="335768405#1" to="237522574#1" modes="public"/>
    </person>
    <person id="ped175" depart="767.27" type="ped_pedestrian">
        <personTrip from="72157169#0" to="274513559" modes="public"/>
    </person>
    <person id="ped176" depart="771.65" type="ped_pedestrian">
        <personTrip from="566155000" to="-375935042" modes="public"/>
    </person>
    <person id="ped177" depart="776.04" type="ped_pedestrian">
        <personTrip from="61583424#1" to="-606078069#2" modes="public"/>
    </person>
    <person id="ped178" depart="780.42" type="ped_pedestrian">
        <personTrip from="59334310#5" to="165415454#1" modes="public"/>
    </person>
    <person id="ped179" depart="784.81" type="ped_pedestrian">
        <personTrip from="-340498976#8" to="24992424#3" modes="public"/>
    </person>
    <person id="ped180" depart="789.19" type="ped_pedestrian">
        <personTrip from="384309030" to="181618202" modes="public"/>
    </person>
    <person id="ped181" depart="793.58" type="ped_pedestrian">
        <personTrip from="313323170#0" to="272780744#0" modes="public"/>
    </person>
    <person id="ped182" depart="797.96" type="ped_pedestrian">
        <personTrip from="23013165#2" to="30720544#0" modes="public"/>
    </person>
    <person id="ped183" depart="802.34" type="ped_pedestrian">
        <personTrip from="159482052#1" to="377494315" modes="public"/>
    </person>
    <person id="ped184" depart="806.73" type="ped_pedestrian">
        <personTrip from="-110464118#0" to="553121565" modes="public"/>
    </person>
    <person id="ped185" depart="811.11" type="ped_pedestrian">
        <personTrip from="274513573" to="379797004#2" modes="public"/>
    </person>
    <person id="ped186" depart="815.50" type="ped_pedestrian">
        <personTrip from="394345496#4" to="346212658" modes="public"/>
    </person>
    <person id="ped187" depart="819.88" type="ped_pedestrian">
        <personTrip from="202157031#1" to="-24243107#1" modes="public"/>
    </person>
    <person id="ped188" depart="824.27" type="ped_pedestrian">
        <personTrip from="346206374" to="195397561#2" modes="public"/>
    </person>
    <person id="ped189" depart="828.65" type="ped_pedestrian">
        <personTrip from="183415643" to="465376255#0" modes="public"/>
    </person>
    <person id="ped190" depart="833.03" type="ped_pedestrian">
        <personTrip from="379797004#3" to="173197451#0" modes="public"/>
    </person>
    <person id="ped191" depart="837.42" type="ped_pedestrian">
        <personTrip from="176043806#1" to="23851919" modes="public"/>
    </person>
    <person id="ped192" depart="841.80" type="ped_pedestrian">
        <personTrip from="23809670#4" to="171826987#2" modes="public"/>
    </person>
    <person id="ped193" depart="846.19" type="ped_pedestrian">
        <personTrip from="-437325051#1" to="24243052#2" modes="public"/>
    </person>
    <person id="ped194" depart="850.57" type="ped_pedestrian">
        <personTrip from="566155004" to="346229515#4" modes="public"/>
    </person>
    <person id="ped195" depart="854.96" type="ped_pedestrian">
        <personTrip from="518508124#5" to="320454752" modes="public"/>
    </person>
    <person id="ped196" depart="859.34" type="ped_pedestrian">
        <personTrip from="173197451#4" to="275008387#2" modes="public"/>
    </person>
    <person id="ped197" depart="863.73" type="ped_pedestrian">
        <personTrip from="-102408133#1" to="170517259" modes="public"/>
    </person>
    <person id="ped198" depart="868.11" type="ped_pedestrian">
        <personTrip from="24913304#1" to="308669106#0" modes="public"/>
    </person>
    <person id="ped199" depart="872.49" type="ped_pedestrian">
        <personTrip from="344594969" to="263821578" modes="public"/>
    </person>
    <person id="ped200" depart="876.88" type="ped_pedestrian">
        <personTrip from="254339581#1" to="120675240#1" modes="public"/>