<?xml version="1.0" encoding="UTF-8"?>
<!-- generated on 2018-05-22 16:06:11.098536 by $Id$
  options: <doubleminus>testing
-->
<routes xmlns:xsi="http://www.w3.org/2001/XMLSchema-instance" xsi:noNamespaceSchemaLocation="http://sumo.dlr.de/xsd/routes_file.xsd">
    <vType id="pedestrian" vClass="pedestrian" speedDev="0.1"/>
    <person id="ped0" depart="0.00">
        <personTrip from="272780733" to="-138142366#1" modes="public"/>
    </person>
    <person id="ped1" depart="4.11">
        <personTrip from="143201755#1" to="110769140" modes="public"/>
    </person>
    <person id="ped2" depart="8.22">
        <personTrip from="310010117#1" to="272811796" modes="public"/>
    </person>
    <person id="ped3" depart="12.33">
        <personTrip from="48664717#1" to="-23386522#1" modes="public"/>
    </person>
    <person id="ped4" depart="16.45">
        <personTrip from="199434277" to="-153698402#0" modes="public"/>
    </person>
    <person id="ped5" depart="20.56">
        <personTrip from="108481483" to="23852051#2" modes="public"/>
    </person>
    <person id="ped6" depart="24.67">
        <personTrip from="-143201755#1" to="-82658674#0" modes="public"/>
    </person>
    <person id="ped7" depart="28.78">
        <personTrip from="272780755#0" to="254339583" modes="public"/>
    </person>
    <person id="ped8" depart="32.89">
        <personTrip from="109819341" to="272757258#5" modes="public"/>
    </person>
    <person id="ped9" depart="37.00">
        <personTrip from="35557161#1" to="-111833186#0" modes="public"/>
    </person>
    <person id="ped10" depart="41.12">
        <personTrip from="34411872#1" to="274524384#0" modes="public"/>
    </person>
    <person id="ped11" depart="45.23">
        <personTrip from="171829099#3" to="-4588220" modes="public"/>
    </person>
    <person id="ped12" depart="49.34">
        <personTrip from="76865764#1" to="171826987#0" modes="public"/>
    </person>
    <person id="ped13" depart="53.45">
        <personTrip from="-23809670#3" to="-24242892#0" modes="public"/>
    </person>
    <person id="ped14" depart="57.56">
        <personTrip from="4611690#0" to="272757300" modes="public"/>
    </person>
    <person id="ped15" depart="61.67">
        <personTrip from="34848160#2" to="304517627#1" modes="public"/>
    </person>
    <person id="ped16" depart="65.79">
        <personTrip from="25294731#0" to="88361586#1" modes="public"/>
    </person>
    <person id="ped17" depart="69.90">
        <personTrip from="190447766#0" to="254341208#0" modes="public"/>
    </person>
    <person id="ped18" depart="74.01">
        <personTrip from="4396823#5" to="272757331#0" modes="public"/>
    </person>
    <person id="ped19" depart="78.12">
        <personTrip from="4612976#0" to="260138639#0" modes="public"/>
    </person>
    <person id="ped20" depart="82.23">
        <personTrip from="280007138" to="-176043806" modes="public"/>
    </person>
    <person id="ped21" depart="86.34">
        <personTrip from="112128418#7" to="159482049" modes="public"/>
    </person>
    <person id="ped22" depart="90.45">
        <personTrip from="-202817674#1" to="113595955#0" modes="public"/>
    </person>
    <person id="ped23" depart="94.57">
        <personTrip from="-243854725#1" to="147066248" modes="public"/>
    </person>
    <person id="ped24" depart="98.68">
        <personTrip from="272757350#1" to="181587284" modes="public"/>
    </person>
    <person id="ped25" depart="102.79">
        <personTrip from="184605944" to="100405009#3" modes="public"/>
    </person>
    <person id="ped26" depart="106.90">
        <personTrip from="137085431#1" to="61583424#0" modes="public"/>
    </person>
    <person id="ped27" depart="111.01">
        <personTrip from="272780752#0" to="272757316#0" modes="public"/>
    </person>
    <person id="ped28" depart="115.12">
        <personTrip from="-4612427#1" to="304514893#1" modes="public"/>
    </person>
    <person id="ped29" depart="119.24">
        <personTrip from="-4610597#1" to="190447768#0" modes="public"/>
    </person>
    <person id="ped30" depart="123.35">
        <personTrip from="88462842#3" to="272780735" modes="public"/>
    </person>
    <person id="ped31" depart="127.46">
        <personTrip from="254523876" to="274513573#1" modes="public"/>
    </person>
    <person id="ped32" depart="131.57">
        <personTrip from="4610597#0" to="314433244#2" modes="public"/>
    </person>
    <person id="ped33" depart="135.68">
        <personTrip from="112128423" to="-158023913#1" modes="public"/>
    </person>
    <person id="ped34" depart="139.79">
        <personTrip from="169660686#0" to="137085433#1" modes="public"/>
    </person>
    <person id="ped35" depart="143.91">
        <personTrip from="100950875#3" to="6227654#3" modes="public"/>
    </person>
    <person id="ped36" depart="148.02">
        <personTrip from="4773027#0" to="169230291#2" modes="public"/>
    </person>
    <person id="ped37" depart="152.13">
        <personTrip from="272795476" to="195071822#1" modes="public"/>
    </person>
    <person id="ped38" depart="156.24">
        <personTrip from="52480374" to="229531161#0" modes="public"/>
    </person>
    <person id="ped39" depart="160.35">
        <personTrip from="137085420" to="131611526" modes="public"/>
    </person>
    <person id="ped40" depart="164.46">
        <personTrip from="254523891" to="137085411#4" modes="public"/>
    </person>
    <person id="ped41" depart="168.58">
        <personTrip from="266572299#0" to="51167927#2" modes="public"/>
    </person>
    <person id="ped42" depart="172.69">
        <personTrip from="195104956" to="109819106#1" modes="public"/>
    </person>
    <person id="ped43" depart="176.80">
        <personTrip from="98749939#2" to="24242882#0" modes="public"/>
    </person>
    <person id="ped44" depart="180.91">
        <personTrip from="-237206973#4" to="-176043807#4" modes="public"/>
    </person>
    <person id="ped45" depart="185.02">
        <personTrip from="-256678741#1" to="272757341#2" modes="public"/>
    </person>
    <person id="ped46" depart="189.13">
        <personTrip from="327519008#0" to="199485599" modes="public"/>
    </person>
    <person id="ped47" depart="193.24">
        <personTrip from="-194962398#1" to="194073677" modes="public"/>
    </person>
    <person id="ped48" depart="197.36">
        <personTrip from="98008454" to="24914141#2" modes="public"/>
    </person>
    <person id="ped49" depart="201.47">
        <personTrip from="83517332#1" to="4612974#0" modes="public"/>
    </person>
    <person id="ped50" depart="205.58">
        <personTrip from="-128396190#4" to="292429062#2" modes="public"/>
    </person>
    <person id="ped51" depart="209.69">
        <personTrip from="274513565#0" to="25303637#0" modes="public"/>
    </person>
    <person id="ped52" depart="213.80">
        <personTrip from="137085431#0" to="272780738" modes="public"/>
    </person>
    <person id="ped53" depart="217.91">
        <personTrip from="-26322535#0" to="202157024#1" modes="public"/>
    </person>
    <person id="ped54" depart="222.03">
        <personTrip from="225400609#10" to="72463267#2" modes="public"/>
    </person>
    <person id="ped55" depart="226.14">
        <personTrip from="4773026#0" to="137085413" modes="public"/>
    </person>
    <person id="ped56" depart="230.25">
        <personTrip from="23852035#1" to="-4613299#0" modes="public"/>
    </person>
    <person id="ped57" depart="234.36">
        <personTrip from="52349369#0" to="4615566" modes="public"/>
    </person>
    <person id="ped58" depart="238.47">
        <personTrip from="164874304" to="272780732" modes="public"/>
    </person>
    <person id="ped59" depart="242.58">
        <personTrip from="272757316#0" to="-4412868" modes="public"/>
    </person>
    <person id="ped60" depart="246.70">
        <personTrip from="312392969#2" to="254339567" modes="public"/>
    </person>
    <person id="ped61" depart="250.81">
        <personTrip from="315255210" to="24915060#1" modes="public"/>
    </person>
    <person id="ped62" depart="254.92">
        <personTrip from="-100944802#1" to="170302412" modes="public"/>
    </person>
    <person id="ped63" depart="259.03">
        <personTrip from="-137085410#2" to="59286194#3" modes="public"/>
    </person>
    <person id="ped64" depart="263.14">
        <personTrip from="4773463#2" to="4402037#1" modes="public"/>
    </person>
    <person id="ped65" depart="267.25">
        <personTrip from="168943639#1" to="-194167259#0" modes="public"/>
    </person>
    <person id="ped66" depart="271.36">
        <personTrip from="4773463#0" to="66514420#0" modes="public"/>
    </person>
    <person id="ped67" depart="275.48">
        <personTrip from="-23121445#5" to="237519484" modes="public"/>
    </person>
    <person id="ped68" depart="279.59">
        <personTrip from="-195104956" to="312392967#1" modes="public"/>
    </person>
    <person id="ped69" depart="283.70">
        <personTrip from="312392977#1" to="-31112516#0" modes="public"/>
    </person>
    <person id="ped70" depart="287.81">
        <personTrip from="234319314" to="254339594#0" modes="public"/>
    </person>
    <person id="ped71" depart="291.92">
        <personTrip from="137085424" to="46517262#5" modes="public"/>
    </person>
    <person id="ped72" depart="296.03">
        <personTrip from="202156991#1" to="103359348" modes="public"/>
    </person>
    <person id="ped73" depart="300.15">
        <personTrip from="254339567" to="304753158" modes="public"/>
    </person>
    <person id="ped74" depart="304.26">
        <personTrip from="-83517339" to="169195795#10" modes="public"/>
    </person>
    <person id="ped75" depart="308.37">
        <personTrip from="88462861#1" to="272780755#0" modes="public"/>
    </person>
    <person id="ped76" depart="312.48">
        <personTrip from="202157028" to="243911462" modes="public"/>
    </person>
    <person id="ped77" depart="316.59">
        <personTrip from="-292429062#0" to="111833186#0" modes="public"/>
    </person>
    <person id="ped78" depart="320.70">
        <personTrip from="171829093" to="272757258#2" modes="public"/>
    </person>
    <person id="ped79" depart="324.82">
        <personTrip from="113589279" to="109819341" modes="public"/>
    </person>
    <person id="ped80" depart="328.93">
        <personTrip from="-195397541#1" to="272757346#0" modes="public"/>
    </person>
    <person id="ped81" depart="333.04">
        <personTrip from="112128419#2" to="51234181#3" modes="public"/>
    </person>
    <person id="ped82" depart="337.15">
        <personTrip from="4612970#0" to="-195397541#0" modes="public"/>
    </person>
    <person id="ped83" depart="341.26">
        <personTrip from="122109777" to="272795503#1" modes="public"/>
    </person>
    <person id="ped84" depart="345.37">
        <personTrip from="104786912#1" to="-31959087#0" modes="public"/>
    </person>
    <person id="ped85" depart="349.48">
        <personTrip from="61579356" to="254523910#1" modes="public"/>
    </person>
    <person id="ped86" depart="353.60">
        <personTrip from="23230845#1" to="31959081#1" modes="public"/>
    </person>
    <person id="ped87" depart="357.71">
        <personTrip from="35269774#0" to="-61585625" modes="public"/>
    </person>
    <person id="ped88" depart="361.82">
        <personTrip from="-24242892#1" to="202157018#0" modes="public"/>
    </person>
    <person id="ped89" depart="365.93">
        <personTrip from="202156995#0" to="23013165" modes="public"/>
    </person>
    <person id="ped90" depart="370.04">
        <personTrip from="304514893#1" to="272810805" modes="public"/>
    </person>
    <person id="ped91" depart="374.15">
        <personTrip from="88462834" to="-24242892#5" modes="public"/>
    </person>
    <person id="ped92" depart="378.27">
        <personTrip from="195397561#3" to="171829099#0" modes="public"/>
    </person>
    <person id="ped93" depart="382.38">
        <personTrip from="4612976#0" to="132460630" modes="public"/>
    </person>
    <person id="ped94" depart="386.49">
        <personTrip from="-61585625" to="225400578#0" modes="public"/>
    </person>
    <person id="ped95" depart="390.60">
        <personTrip from="199434277" to="150634670#0" modes="public"/>
    </person>
    <person id="ped96" depart="394.71">
        <personTrip from="132460633#0" to="55741054" modes="public"/>
    </person>
    <person id="ped97" depart="398.82">
        <personTrip from="202817677" to="4612974#1" modes="public"/>
    </person>
    <person id="ped98" depart="402.94">
        <personTrip from="254339598#0" to="-19002363#0" modes="public"/>
    </person>
    <person id="ped99" depart="407.05">
        <personTrip from="99226299#0" to="4588219#2" modes="public"/>
    </person>
    <person id="ped100" depart="411.16">
        <personTrip from="82659291#0" to="59286188#2" modes="public"/>
    </person>
    <person id="ped101" depart="415.27">
        <personTrip from="4611696#0" to="-4610610#1" modes="public"/>
    </person>
    <person id="ped102" depart="419.38">
        <personTrip from="237519483" to="104581979" modes="public"/>
    </person>
    <person id="ped103" depart="423.49">
        <personTrip from="195268585" to="-194177692#0" modes="public"/>
    </person>
    <person id="ped104" depart="427.61">
        <personTrip from="190447767#1" to="88462838" modes="public"/>
    </person>
    <person id="ped105" depart="431.72">
        <personTrip from="137085424" to="31959081#0" modes="public"/>
    </person>
    <person id="ped106" depart="435.83">
        <personTrip from="225400609#4" to="202156991#1" modes="public"/>
    </person>
    <person id="ped107" depart="439.94">
        <personTrip from="76865764#2" to="88462861#1" modes="public"/>
    </person>
    <person id="ped108" depart="444.05">
        <personTrip from="254523873" to="289966097" modes="public"/>
    </person>
    <person id="ped109" depart="448.16">
        <personTrip from="-4588219#1" to="164039095#1" modes="public"/>
    </person>
    <person id="ped110" depart="452.27">
        <personTrip from="82659290#2" to="262407304" modes="public"/>
    </person>
    <person id="ped111" depart="456.39">
        <personTrip from="254339574" to="311247958" modes="public"/>
    </person>
    <person id="ped112" depart="460.50">
        <personTrip from="-194167255#1" to="266572297#0" modes="public"/>
    </person>
    <person id="ped113" depart="464.61">
        <personTrip from="23852041#6" to="4611708#3" modes="public"/>
    </person>
    <person id="ped114" depart="468.72">
        <personTrip from="-4610374" to="82168031" modes="public"/>
    </person>
    <person id="ped115" depart="472.83">
        <personTrip from="-204032443#0" to="-51167934#3" modes="public"/>
    </person>
    <person id="ped116" depart="476.94">
        <personTrip from="272757272" to="272810810#0" modes="public"/>
    </person>
    <person id="ped117" depart="481.06">
        <personTrip from="11483007" to="-285825378#1" modes="public"/>
    </person>
    <person id="ped118" depart="485.17">
        <personTrip from="48524801#2" to="131505631#1" modes="public"/>
    </person>
    <person id="ped119" depart="489.28">
        <personTrip from="272757270" to="272757332#1" modes="public"/>
    </person>
    <person id="ped120" depart="493.39">
        <personTrip from="19801618#4" to="266572296" modes="public"/>
    </person>
    <person id="ped121" depart="497.50">
        <personTrip from="246011391#2" to="61579352" modes="public"/>
    </person>
    <person id="ped122" depart="501.61">
        <personTrip from="-98749939#0" to="28679067#0" modes="public"/>
    </person>
    <person id="ped123" depart="505.73">
        <personTrip from="122820536" to="195071823" modes="public"/>
    </person>
    <person id="ped124" depart="509.84">
        <personTrip from="272795506#0" to="164874309" modes="public"/>
    </person>
    <person id="ped125" depart="513.95">
        <personTrip from="169660686#2" to="312019436#0" modes="public"/>
    </person>
    <person id="ped126" depart="518.06">
        <personTrip from="-195397561#4" to="229531159" modes="public"/>
    </person>
    <person id="ped127" depart="522.17">
        <personTrip from="98749939#5" to="98008451" modes="public"/>
    </person>
    <person id="ped128" depart="526.28">
        <personTrip from="-195397561#6" to="104191076#2" modes="public"/>
    </person>
    <person id="ped129" depart="530.39">
        <personTrip from="137085424" to="60333309" modes="public"/>
    </person>
    <person id="ped130" depart="534.51">
        <personTrip from="47986658#0" to="4773465#1" modes="public"/>
    </person>
    <person id="ped131" depart="538.62">
        <personTrip from="183415643" to="-4610375#0" modes="public"/>
    </person>
    <person id="ped132" depart="542.73">
        <personTrip from="44427220#2" to="276701303#2" modes="public"/>
    </person>
    <person id="ped133" depart="546.84">
        <personTrip from="272757320#0" to="88462842#11" modes="public"/>
    </person>
    <person id="ped134" depart="550.95">
        <personTrip from="272780762#0" to="-114667396" modes="public"/>
    </person>
    <person id="ped135" depart="555.06">
        <personTrip from="43139878" to="164874307" modes="public"/>
    </person>
    <person id="ped136" depart="559.18">
        <personTrip from="272795497#1" to="61584187#4" modes="public"/>
    </person>
    <person id="ped137" depart="563.29">
        <personTrip from="-32508518" to="-276701303#0" modes="public"/>
    </person>
    <person id="ped138" depart="567.40">
        <personTrip from="-24992424#3" to="254523864" modes="public"/>
    </person>
    <person id="ped139" depart="571.51">
        <personTrip from="138142366#1" to="272757303" modes="public"/>
    </person>
    <person id="ped140" depart="575.62">
        <personTrip from="288726033#0" to="-98338940#0" modes="public"/>
    </person>
    <person id="ped141" depart="579.73">
        <personTrip from="272757348#4" to="137085417" modes="public"/>
    </person>
    <person id="ped142" depart="583.85">
        <personTrip from="237520773#4" to="51234181#3" modes="public"/>
    </person>
    <person id="ped143" depart="587.96">
        <personTrip from="4610609#1" to="-23809670#1" modes="public"/>
    </person>
    <person id="ped144" depart="592.07">
        <personTrip from="202156995#0" to="143201760" modes="public"/>
    </person>
    <person id="ped145" depart="596.18">
        <personTrip from="-109819340" to="312868183#1" modes="public"/>
    </person>
    <person id="ped146" depart="600.29">
        <personTrip from="272780726" to="137085411#1" modes="public"/>
    </person>
    <person id="ped147" depart="604.40">
        <personTrip from="310186444" to="254339599#2" modes="public"/>
    </person>
    <person id="ped148" depart="608.51">
        <personTrip from="202157005" to="-122820534#1" modes="public"/>
    </person>
    <person id="ped149" depart="612.63">
        <personTrip from="-196850606#2" to="48095588#0" modes="public"/>
    </person>
    <person id="ped150" depart="616.74">
        <personTrip from="51234180#2" to="254339585" modes="public"/>
    </person>
    <person id="ped151" depart="620.85">
        <personTrip from="4570580#0" to="26322540#1" modes="public"/>
    </person>
    <person id="ped152" depart="624.96">
        <personTrip from="-4396823#11" to="-310176513#6" modes="public"/>
    </person>
    <person id="ped153" depart="629.07">
        <personTrip from="168943640#1" to="51167928#1" modes="public"/>
    </person>
    <person id="ped154" depart="633.18">
        <personTrip from="327519012#3" to="4612972" modes="public"/>
    </person>
    <person id="ped155" depart="637.30">
        <personTrip from="51167928#0" to="100944802#1" modes="public"/>
    </person>
    <person id="ped156" depart="641.41">
        <personTrip from="132460632#1" to="-24540240#1" modes="public"/>
    </person>
    <person id="ped157" depart="645.52">
        <personTrip from="31609479" to="48164817#1" modes="public"/>
    </person>
    <person id="ped158" depart="649.63">
        <personTrip from="195411602#0" to="272757334#1" modes="public"/>
    </person>
    <person id="ped159" depart="653.74">
        <personTrip from="-4588219#0" to="59287094" modes="public"/>
    </person>
    <person id="ped160" depart="657.85">
        <personTrip from="4613293" to="88361597#2" modes="public"/>
    </person>
    <person id="ped161" depart="661.97">
        <personTrip from="36892597#1" to="47986658#1" modes="public"/>
    </person>
    <person id="ped162" depart="666.08">
        <personTrip from="-138142366#0" to="310010117#1" modes="public"/>
    </person>
    <person id="ped163" depart="670.19">
        <personTrip from="171423004#6" to="59331208" modes="public"/>
    </person>
    <person id="ped164" depart="674.30">
        <personTrip from="330840131" to="4613292" modes="public"/>
    </person>
    <person id="ped165" depart="678.41">
        <personTrip from="36892597#1" to="137085431#0" modes="public"/>
    </person>
    <person id="ped166" depart="682.52">
        <personTrip from="320454752" to="-24993933#1" modes="public"/>
    </person>
    <person id="ped167" depart="686.64">
        <personTrip from="46517262#4" to="4612968#4" modes="public"/>
    </person>
    <person id="ped168" depart="690.75">
        <personTrip from="110676319" to="42103021" modes="public"/>
    </person>
    <person id="ped169" depart="694.86">
        <personTrip from="22954356#1" to="168937986#0" modes="public"/>
    </person>
    <person id="ped170" depart="698.97">
        <personTrip from="327519012#1" to="112128418#6" modes="public"/>
    </person>
    <person id="ped171" depart="703.08">
        <personTrip from="-137085434#2" to="-66071366#2" modes="public"/>
    </person>
    <person id="ped172" depart="707.19">
        <personTrip from="170852456" to="4613293" modes="public"/>
    </person>
    <person id="ped173" depart="711.30">
        <personTrip from="82654059#0" to="150634670#1" modes="public"/>
    </person>
    <person id="ped174" depart="715.42">
        <personTrip from="272780739" to="195104960#0" modes="public"/>
    </person>
    <person id="ped175" depart="719.53">
        <personTrip from="88361628" to="25294731#0" modes="public"/>
    </person>
    <person id="ped176" depart="723.64">
        <personTrip from="61585626#0" to="-276701303#0" modes="public"/>
    </person>
    <person id="ped177" depart="727.75">
        <personTrip from="83387877" to="-4613299#0" modes="public"/>
    </person>
    <person id="ped178" depart="731.86">
        <personTrip from="82638369#2" to="137085425" modes="public"/>
    </person>
    <person id="ped179" depart="735.97">
        <personTrip from="-25294729#0" to="202157024#0" modes="public"/>
    </person>
    <person id="ped180" depart="740.09">
        <personTrip from="304348024" to="169195795#9" modes="public"/>
    </person>
    <person id="ped181" depart="744.20">
        <personTrip from="272757307" to="24242892#4" modes="public"/>
    </person>
    <person id="ped182" depart="748.31">
        <personTrip from="194167257" to="260138638#0" modes="public"/>
    </person>
    <person id="ped183" depart="752.42">
        <personTrip from="133885750#1" to="28251484#0" modes="public"/>
    </person>
    <person id="ped184" depart="756.53">
        <personTrip from="-104991251" to="59286185#1" modes="public"/>
    </person>
    <person id="ped185" depart="760.64">
        <personTrip from="254339563#2" to="289967595#0" modes="public"/>
    </person>
    <person id="ped186" depart="764.76">
        <personTrip from="310314582#0" to="272795504#3" modes="public"/>
    </person>
    <person id="ped187" depart="768.87">
        <personTrip from="181587282" to="-195105328#1" modes="public"/>
    </person>
    <person id="ped188" depart="772.98">
        <personTrip from="272795499#0" to="171423002" modes="public"/>
    </person>
    <person id="ped189" depart="777.09">
        <personTrip from="169230291#0" to="4611690#1" modes="public"/>
    </person>
    <person id="ped190" depart="781.20">
        <personTrip from="292429056" to="164874310" modes="public"/>
    </person>
    <person id="ped191" depart="785.31">
        <personTrip from="169195164" to="195411604#3" modes="public"/>
    </person>
    <person id="ped192" depart="789.42">
        <personTrip from="195397561#2" to="163368220" modes="public"/>
    </person>
    <person id="ped193" depart="793.54">
        <personTrip from="-310176513#6" to="199425803" modes="public"/>
    </person>
    <person id="ped194" depart="797.65">
        <personTrip from="61585626#3" to="274513542" modes="public"/>
    </person>
    <person id="ped195" depart="801.76">
        <personTrip from="51167934#3" to="272757326" modes="public"/>
    </person>
    <person id="ped196" depart="805.87">
        <personTrip from="165415452#1" to="254339591#1" modes="public"/>
    </person>
    <person id="ped197" depart="809.98">
        <personTrip from="-100944802#1" to="158023913#1" modes="public"/>
    </person>
    <person id="ped198" depart="814.09">
        <personTrip from="202157014" to="262407305#1" modes="public"/>
    </person>
    <person id="ped199" depart="818.21">
        <personTrip from="272780762#2" to="230015280" modes="public"/>
    </person>
    <person id="ped200" depart="822.32">
        <personTrip from="202817674#1" to="104567844" modes="public"/>
    </person>
    <person id="ped201" depart="826.43">
        <personTrip from="23230845#3" to="51167932#2" modes="public"/>
    </person>
    <person id="ped202" depart="830.54">
        <personTrip from="327519012#3" to="-4611708#3" modes="public"/>
    </person>
    <person id="ped203" depart="834.65">
        <personTrip from="-23121445#2" to="24273323#0" modes="public"/>
    </person>
    <person id="ped204" depart="838.76">
        <personTrip from="272757348#0" to="171826986#0" modes="public"/>
    </person>
    <person id="ped205" depart="842.88">
        <personTrip from="43158961#2" to="311974267#1" modes="public"/>
    </person>
    <person id="ped206" depart="846.99">
        <personTrip from="272810803" to="111833186#0" modes="public"/>
    </person>
    <person id="ped207" depart="851.10">
        <personTrip from="-82658674#0" to="-137630045" modes="public"/>
    </person>
    <person id="ped208" depart="855.21">
        <personTrip from="128488713" to="234319314" modes="public"/>
    </person>
    <person id="ped209" depart="859.32">
        <personTrip from="4611698#0" to="-195397561#4" modes="public"/>
    </person>
    <person id="ped210" depart="863.43">
        <personTrip from="196850624#1" to="272757344#2" modes="public"/>
    </person>
    <person id="ped211" depart="867.54">
        <personTrip from="-66514420#2" to="274524380#1" modes="public"/>
    </person>
    <person id="ped212" depart="871.66">
        <personTrip from="23812656#0" to="128396189#2" modes="public"/>
    </person>
    <person id="ped213" depart="875.77">
        <personTrip from="272795478" to="-111251382#0" modes="public"/>
    </person>
    <person id="ped214" depart="879.88">
        <personTrip from="311974267#0" to="312651888#1" modes="public"/>
    </person>
    <person id="ped215" depart="883.99">
        <personTrip from="-24992424#2" to="202156998#1" modes="public"/>
    </person>
    <person id="ped216" depart="888.10">
        <personTrip from="-4612976#0" to="77348147" modes="public"/>
    </person>
    <person id="ped217" depart="892.21">
        <personTrip from="243911463" to="-188914559" modes="public"/>
    </person>
    <person id="ped218" depart="896.33">
        <personTrip from="132460631#1" to="4611690#2" modes="public"/>
    </person>
</routes>
