<?xml version="1.0" encoding="UTF-8"?>
<!-- generated on 2020-02-01 16:53:49.927310 by osmWebWizard.py v1_4_0+0894-e82ae3a576
  options: <doubleminus>test-output test
-->
<routes xmlns:xsi="http://www.w3.org/2001/XMLSchema-instance" xsi:noNamespaceSchemaLocation="http://sumo.dlr.de/xsd/routes_file.xsd">
    <vType id="ped_pedestrian" vClass="pedestrian"/>
    <person id="ped0" depart="0.00" type="ped_pedestrian">
        <personTrip from="339201192#0" to="-15971189" modes="public"/>
    </person>
    <person id="ped1" depart="4.42" type="ped_pedestrian">
        <personTrip from="169195795#5" to="133885750#0" modes="public"/>
    </person>
    <person id="ped2" depart="8.84" type="ped_pedestrian">
        <personTrip from="389101365#1" to="35269774#0" modes="public"/>
    </person>
    <person id="ped3" depart="13.26" type="ped_pedestrian">
        <personTrip from="51167927#2" to="-30721660#5" modes="public"/>
    </person>
    <person id="ped4" depart="17.68" type="ped_pedestrian">
        <personTrip from="243911464" to="-168940071#0" modes="public"/>
    </person>
    <person id="ped5" depart="22.10" type="ped_pedestrian">
        <personTrip from="132460630" to="272780732" modes="public"/>
    </person>
    <person id="ped6" depart="26.52" type="ped_pedestrian">
        <personTrip from="-15973619#4" to="109902441#0" modes="public"/>
    </person>
    <person id="ped7" depart="30.95" type="ped_pedestrian">
        <personTrip from="344595598" to="274524382#1" modes="public"/>
    </person>
    <person id="ped8" depart="35.37" type="ped_pedestrian">
        <personTrip from="133885743#0" to="312176585#0" modes="public"/>
    </person>
    <person id="ped9" depart="39.79" type="ped_pedestrian">
        <personTrip from="4610600" to="-128396189#1" modes="public"/>
    </person>
    <person id="ped10" depart="44.21" type="ped_pedestrian">
        <personTrip from="4610476#1" to="375901777" modes="public"/>
    </person>
    <person id="ped11" depart="48.63" type="ped_pedestrian">
        <personTrip from="196850629#0" to="-47016368#1" modes="public"/>
    </person>
    <person id="ped12" depart="53.05" type="ped_pedestrian">
        <personTrip from="59286182#2" to="196850619" modes="public"/>
    </person>
    <person id="ped13" depart="57.47" type="ped_pedestrian">
        <personTrip from="-312651888#0" to="-320454752" modes="public"/>
    </person>
    <person id="ped14" depart="61.89" type="ped_pedestrian">
        <personTrip from="465376258#1" to="313323171#1" modes="public"/>
    </person>
    <person id="ped15" depart="66.31" type="ped_pedestrian">
        <personTrip from="4610480" to="388702039#3" modes="public"/>
    </person>
    <person id="ped16" depart="70.73" type="ped_pedestrian">
        <personTrip from="274513571#1" to="61585626#2" modes="public"/>
    </person>
    <person id="ped17" depart="75.15" type="ped_pedestrian">
        <personTrip from="22954356#3" to="280007142#6" modes="public"/>
    </person>
    <person id="ped18" depart="79.57" type="ped_pedestrian">
        <personTrip from="4613304#0" to="327519012#7" modes="public"/>
    </person>
    <person id="ped19" depart="84.00" type="ped_pedestrian">
        <personTrip from="4773027#0" to="309147331#0" modes="public"/>
    </person>
    <person id="ped20" depart="88.42" type="ped_pedestrian">
        <personTrip from="377110622#4" to="-194962398#3" modes="public"/>
    </person>
    <person id="ped21" depart="92.84" type="ped_pedestrian">
        <personTrip from="136571494#1" to="170852468" modes="public"/>
    </person>
    <person id="ped22" depart="97.26" type="ped_pedestrian">
        <personTrip from="-28258879#0" to="137085417" modes="public"/>
    </person>
    <person id="ped23" depart="101.68" type="ped_pedestrian">
        <personTrip from="-331883789" to="169660686#0" modes="public"/>
    </person>
    <person id="ped24" depart="106.10" type="ped_pedestrian">
        <personTrip from="335704572" to="202817674#2" modes="public"/>
    </person>
    <person id="ped25" depart="110.52" type="ped_pedestrian">
        <personTrip from="225400578#1" to="114133910#0" modes="public"/>
    </person>
    <person id="ped26" depart="114.94" type="ped_pedestrian">
        <personTrip from="16873017#0" to="564139999#5" modes="public"/>
    </person>
    <person id="ped27" depart="119.36" type="ped_pedestrian">
        <personTrip from="343965618#2" to="31959082" modes="public"/>
    </person>
    <person id="ped28" depart="123.78" type="ped_pedestrian">
        <personTrip from="-566154993" to="388702039#11" modes="public"/>
    </person>
    <person id="ped29" depart="128.20" type="ped_pedestrian">
        <personTrip from="-517220246" to="22972219#0" modes="public"/>
    </person>
    <person id="ped30" depart="132.62" type="ped_pedestrian">
        <personTrip from="82168025" to="339201222" modes="public"/>
    </person>
    <person id="ped31" depart="137.05" type="ped_pedestrian">
        <personTrip from="285825374" to="371927739" modes="public"/>
    </person>
    <person id="ped32" depart="141.47" type="ped_pedestrian">
        <personTrip from="465376241" to="437499013" modes="public"/>
    </person>
    <person id="ped33" depart="145.89" type="ped_pedestrian">
        <personTrip from="136571494#6" to="-168943640#3" modes="public"/>
    </person>
    <person id="ped34" depart="150.31" type="ped_pedestrian">
        <personTrip from="188386313#0" to="168935756" modes="public"/>
    </person>
    <person id="ped35" depart="154.73" type="ped_pedestrian">
        <personTrip from="114667396#0" to="569067820" modes="public"/>
    </person>
    <person id="ped36" depart="159.15" type="ped_pedestrian">
        <personTrip from="48435239" to="188044903#0" modes="public"/>
    </person>
    <person id="ped37" depart="163.57" type="ped_pedestrian">
        <personTrip from="346206356#2" to="237520773#1" modes="public"/>
    </person>
    <person id="ped38" depart="167.99" type="ped_pedestrian">
        <personTrip from="533594858#0" to="26322535#3" modes="public"/>
    </person>
    <person id="ped39" depart="172.41" type="ped_pedestrian">
        <personTrip from="165415464#0" to="156364553#1" modes="public"/>
    </person>
    <person id="ped40" depart="176.83" type="ped_pedestrian">
        <personTrip from="292429062#0" to="164874308" modes="public"/>
    </person>
    <person id="ped41" depart="181.25" type="ped_pedestrian">
        <personTrip from="31112379#0" to="51235556" modes="public"/>
    </person>
    <person id="ped42" depart="185.67" type="ped_pedestrian">
        <personTrip from="23755950#0" to="132460631#1" modes="public"/>
    </person>
    <person id="ped43" depart="190.10" type="ped_pedestrian">
        <personTrip from="83517336#0" to="272780745#1" modes="public"/>
    </person>
    <person id="ped44" depart="194.52" type="ped_pedestrian">
        <personTrip from="-310177222#2" to="-194963395" modes="public"/>
    </person>
    <person id="ped45" depart="198.94" type="ped_pedestrian">
        <personTrip from="-35578576#2" to="335073744" modes="public"/>
    </person>
    <person id="ped46" depart="203.36" type="ped_pedestrian">
        <personTrip from="449849684#1" to="24509314" modes="public"/>
    </person>
    <person id="ped47" depart="207.78" type="ped_pedestrian">
        <personTrip from="-23755739#2" to="230015280" modes="public"/>
    </person>
    <person id="ped48" depart="212.20" type="ped_pedestrian">
        <personTrip from="83387877" to="272810804" modes="public"/>
    </person>
    <person id="ped49" depart="216.62" type="ped_pedestrian">
        <personTrip from="61583424#1" to="4773025" modes="public"/>
    </person>
    <person id="ped50" depart="221.04" type="ped_pedestrian">
        <personTrip from="-133885745#0" to="380365952" modes="public"/>
    </person>
    <person id="ped51" depart="225.46" type="ped_pedestrian">
        <personTrip from="36892597#0" to="274513577#0" modes="public"/>
    </person>
    <person id="ped52" depart="229.88" type="ped_pedestrian">
        <personTrip from="16873017#0" to="339201228" modes="public"/>
    </person>
    <person id="ped53" depart="234.30" type="ped_pedestrian">
        <personTrip from="-369224774" to="254339571" modes="public"/>
    </person>
    <person id="ped54" depart="238.72" type="ped_pedestrian">
        <personTrip from="25959559#0" to="583761436#1" modes="public"/>
    </person>
    <person id="ped55" depart="243.15" type="ped_pedestrian">
        <personTrip from="4840977#1" to="164874309#1" modes="public"/>
    </person>
    <person id="ped56" depart="247.57" type="ped_pedestrian">
        <personTrip from="272757347#2" to="-62363401" modes="public"/>
    </person>
    <person id="ped57" depart="251.99" type="ped_pedestrian">
        <personTrip from="530085630" to="482809610" modes="public"/>
    </person>
    <person id="ped58" depart="256.41" type="ped_pedestrian">
        <personTrip from="171829099#6" to="339201177#3" modes="public"/>
    </person>
    <person id="ped59" depart="260.83" type="ped_pedestrian">
        <personTrip from="31959081#1" to="-4613299#0" modes="public"/>
    </person>
    <person id="ped60" depart="265.25" type="ped_pedestrian">
        <personTrip from="43156728#1" to="274524364#0" modes="public"/>
    </person>
    <person id="ped61" depart="269.67" type="ped_pedestrian">
        <personTrip from="437500504#1" to="272810809" modes="public"/>
    </person>
    <person id="ped62" depart="274.09" type="ped_pedestrian">
        <personTrip from="-104991251" to="194962997#0" modes="public"/>
    </person>
    <person id="ped63" depart="278.51" type="ped_pedestrian">
        <personTrip from="-147066248#1" to="556076653" modes="public"/>
    </person>
    <person id="ped64" depart="282.93" type="ped_pedestrian">
        <personTrip from="48524801#1" to="46140382" modes="public"/>
    </person>
    <person id="ped65" depart="287.35" type="ped_pedestrian">
        <personTrip from="175885747#1" to="-22954356#4" modes="public"/>
    </person>
    <person id="ped66" depart="291.77" type="ped_pedestrian">
        <personTrip from="48435445" to="570058783" modes="public"/>
    </person>
    <person id="ped67" depart="296.19" type="ped_pedestrian">
        <personTrip from="-30721660#0" to="272757322#1" modes="public"/>
    </person>
    <person id="ped68" depart="300.62" type="ped_pedestrian">
        <personTrip from="-24243092#0" to="427637455#1" modes="public"/>
    </person>
    <person id="ped69" depart="305.04" type="ped_pedestrian">
        <personTrip from="43185669#1" to="-448810727" modes="public"/>
    </person>
    <person id="ped70" depart="309.46" type="ped_pedestrian">
        <personTrip from="272757283" to="280007140#3" modes="public"/>
    </person>
    <person id="ped71" depart="313.88" type="ped_pedestrian">
        <personTrip from="165415464#0" to="483624521" modes="public"/>
    </person>
    <person id="ped72" depart="318.30" type="ped_pedestrian">
        <personTrip from="24509315#2" to="120675240#1" modes="public"/>
    </person>
    <person id="ped73" depart="322.72" type="ped_pedestrian">
        <personTrip from="274524364#0" to="388702039#4" modes="public"/>
    </person>
    <person id="ped74" depart="327.14" type="ped_pedestrian">
        <personTrip from="11103418" to="181587282" modes="public"/>
    </person>
    <person id="ped75" depart="331.56" type="ped_pedestrian">
        <personTrip from="82659290#0" to="344595598" modes="public"/>
    </person>
    <person id="ped76" depart="335.98" type="ped_pedestrian">
        <personTrip from="254339586" to="272795483" modes="public"/>
    </person>
    <person id="ped77" depart="340.40" type="ped_pedestrian">
        <personTrip from="-43156728#0" to="133895404" modes="public"/>
    </person>
    <person id="ped78" depart="344.82" type="ped_pedestrian">
        <personTrip from="196850624#0" to="312138362#1" modes="public"/>
    </person>
    <person id="ped79" depart="349.24" type="ped_pedestrian">
        <personTrip from="137085411#0" to="132460633#1" modes="public"/>
    </person>
    <person id="ped80" depart="353.67" type="ped_pedestrian">
        <personTrip from="-24509314" to="335576648#1" modes="public"/>
    </person>
    <person id="ped81" depart="358.09" type="ped_pedestrian">
        <personTrip from="136571494#4" to="52348718#0" modes="public"/>
    </person>
    <person id="ped82" depart="362.51" type="ped_pedestrian">
        <personTrip from="4773023#0" to="-243854725#1" modes="public"/>
    </person>
    <person id="ped83" depart="366.93" type="ped_pedestrian">
        <personTrip from="137630047" to="346213311#3" modes="public"/>
    </person>
    <person id="ped84" depart="371.35" type="ped_pedestrian">
        <personTrip from="123264596" to="-4588219#0" modes="public"/>
    </person>
    <person id="ped85" depart="375.77" type="ped_pedestrian">
        <personTrip from="564139999#1" to="304987178#1" modes="public"/>
    </person>
    <person id="ped86" depart="380.19" type="ped_pedestrian">
        <personTrip from="272757275#0" to="440946432" modes="public"/>
    </person>
    <person id="ped87" depart="384.61" type="ped_pedestrian">
        <personTrip from="4610494#1" to="100944802#2" modes="public"/>
    </person>
    <person id="ped88" depart="389.03" type="ped_pedestrian">
        <personTrip from="-320454752" to="24993933#2" modes="public"/>
    </person>
    <person id="ped89" depart="393.45" type="ped_pedestrian">
        <personTrip from="24540240#1" to="272757258#7" modes="public"/>
    </person>
    <person id="ped90" depart="397.87" type="ped_pedestrian">
        <personTrip from="388702039#11" to="346229516#0" modes="public"/>
    </person>
    <person id="ped91" depart="402.29" type="ped_pedestrian">
        <personTrip from="72455512" to="-326116286#2" modes="public"/>
    </person>
    <person id="ped92" depart="406.72" type="ped_pedestrian">
        <personTrip from="23813203" to="196850626#2" modes="public"/>
    </person>
    <person id="ped93" depart="411.14" type="ped_pedestrian">
        <personTrip from="4773027#0" to="156364559#6" modes="public"/>
    </person>
    <person id="ped94" depart="415.56" type="ped_pedestrian">
        <personTrip from="100944802#1" to="254523891" modes="public"/>
    </person>
    <person id="ped95" depart="419.98" type="ped_pedestrian">
        <personTrip from="243911464" to="169999355" modes="public"/>
    </person>
    <person id="ped96" depart="424.40" type="ped_pedestrian">
        <personTrip from="156364570#2" to="54698846#1" modes="public"/>
    </person>
    <person id="ped97" depart="428.82" type="ped_pedestrian">
        <personTrip from="254523863#1" to="4773026#1" modes="public"/>
    </person>
    <person id="ped98" depart="433.24" type="ped_pedestrian">
        <personTrip from="280007140#5" to="-195397541#1" modes="public"/>
    </person>
    <person id="ped99" depart="437.66" type="ped_pedestrian">
        <personTrip from="84960597#0" to="463898979" modes="public"/>
    </person>
    <person id="ped100" depart="442.08" type="ped_pedestrian">
        <personTrip from="61579351" to="553121566#2" modes="public"/>
    </person>
    <person id="ped101" depart="446.50" type="ped_pedestrian">
        <personTrip from="465376261#2" to="-530111226" modes="public"/>
    </person>
    <person id="ped102" depart="450.92" type="ped_pedestrian">
        <personTrip from="272757321" to="122820534#1" modes="public"/>
    </person>
    <person id="ped103" depart="455.34" type="ped_pedestrian">
        <personTrip from="23809677" to="-22972473#1" modes="public"/>
    </person>
    <person id="ped104" depart="459.77" type="ped_pedestrian">
        <personTrip from="22972195#2" to="72463267#1" modes="public"/>
    </person>
    <person id="ped105" depart="464.19" type="ped_pedestrian">
        <personTrip from="165832574#0" to="440946430" modes="public"/>
    </person>
    <person id="ped106" depart="468.61" type="ped_pedestrian">
        <personTrip from="260138638#1" to="24509315#2" modes="public"/>
    </person>
    <person id="ped107" depart="473.03" type="ped_pedestrian">
        <personTrip from="59286182#2" to="82659291#0" modes="public"/>
    </person>
    <person id="ped108" depart="477.45" type="ped_pedestrian">
        <personTrip from="28258879#1" to="379904843#2" modes="public"/>
    </person>
    <person id="ped109" depart="481.87" type="ped_pedestrian">
        <personTrip from="-46983896" to="171829097" modes="public"/>
    </person>
    <person id="ped110" depart="486.29" type="ped_pedestrian">
        <personTrip from="607001337" to="310010117#1" modes="public"/>
    </person>
    <person id="ped111" depart="490.71" type="ped_pedestrian">
        <personTrip from="274524376" to="410310755#2" modes="public"/>
    </person>
    <person id="ped112" depart="495.13" type="ped_pedestrian">
        <personTrip from="-22954356#1" to="310548395" modes="public"/>
    </person>
    <person id="ped113" depart="499.55" type="ped_pedestrian">
        <personTrip from="272757350#1" to="47016368#0" modes="public"/>
    </person>
    <person id="ped114" depart="503.97" type="ped_pedestrian">
        <personTrip from="-47986661#0" to="59286500#0" modes="public"/>
    </person>
    <person id="ped115" depart="508.39" type="ped_pedestrian">
        <personTrip from="-28258879#1" to="-83517336#1" modes="public"/>
    </person>
    <person id="ped116" depart="512.81" type="ped_pedestrian">
        <personTrip from="312392975#1" to="346240665#0" modes="public"/>
    </person>
    <person id="ped117" depart="517.24" type="ped_pedestrian">
        <personTrip from="137085431#0" to="-42103020" modes="public"/>
    </person>
    <person id="ped118" depart="521.66" type="ped_pedestrian">
        <personTrip from="51167562#1" to="156364553#0" modes="public"/>
    </person>
    <person id="ped119" depart="526.08" type="ped_pedestrian">
        <personTrip from="312392974" to="328426193#0" modes="public"/>
    </person>
    <person id="ped120" depart="530.50" type="ped_pedestrian">
        <personTrip from="24273323#0" to="310357283#0" modes="public"/>
    </person>
    <person id="ped121" depart="534.92" type="ped_pedestrian">
        <personTrip from="272795497#0" to="561816967" modes="public"/>
    </person>
    <person id="ped122" depart="539.34" type="ped_pedestrian">
        <personTrip from="112128418#3" to="379797004#0" modes="public"/>
    </person>
    <person id="ped123" depart="543.76" type="ped_pedestrian">
        <personTrip from="137630049" to="237520773#2" modes="public"/>
    </person>
    <person id="ped124" depart="548.18" type="ped_pedestrian">
        <personTrip from="346229513" to="173197451#2" modes="public"/>
    </person>
    <person id="ped125" depart="552.60" type="ped_pedestrian">
        <personTrip from="188914559" to="42102542#1" modes="public"/>
    </person>
    <person id="ped126" depart="557.02" type="ped_pedestrian">
        <personTrip from="-24913267#2" to="26322535#0" modes="public"/>
    </person>
    <person id="ped127" depart="561.44" type="ped_pedestrian">
        <personTrip from="83517336#3" to="83387877" modes="public"/>
    </person>
    <person id="ped128" depart="565.86" type="ped_pedestrian">
        <personTrip from="-24992424#5" to="121717657#4" modes="public"/>
    </person>
    <person id="ped129" depart="570.29" type="ped_pedestrian">
        <personTrip from="165832574#0" to="560370523" modes="public"/>
    </person>
    <person id="ped130" depart="574.71" type="ped_pedestrian">
        <personTrip from="487045187" to="48664687#0" modes="public"/>
    </person>
    <person id="ped131" depart="579.13" type="ped_pedestrian">
        <personTrip from="222470309#1" to="-47986661#1" modes="public"/>
    </person>
    <person id="ped132" depart="583.55" type="ped_pedestrian">
        <personTrip from="463829474#1" to="377110622#1" modes="public"/>
    </person>
    <person id="ped133" depart="587.97" type="ped_pedestrian">
        <personTrip from="32508516#0" to="76865764#3" modes="public"/>
    </person>
    <person id="ped134" depart="592.39" type="ped_pedestrian">
        <personTrip from="345088524#0" to="-131420077#0" modes="public"/>
    </person>
    <person id="ped135" depart="596.81" type="ped_pedestrian">
        <personTrip from="4611706#1" to="172283961" modes="public"/>
    </person>
    <person id="ped136" depart="601.23" type="ped_pedestrian">
        <personTrip from="346206393" to="566154996" modes="public"/>
    </person>
    <person id="ped137" depart="605.65" type="ped_pedestrian">
        <personTrip from="-4610355#0" to="-389101365#2" modes="public"/>
    </person>
    <person id="ped138" depart="610.07" type="ped_pedestrian">
        <personTrip from="-344595607#1" to="28016309#2" modes="public"/>
    </person>
    <person id="ped139" depart="614.49" type="ped_pedestrian">
        <personTrip from="169067264#2" to="315245296#0" modes="public"/>
    </person>
    <person id="ped140" depart="618.91" type="ped_pedestrian">
        <personTrip from="379904842#2" to="112128418#1" modes="public"/>
    </person>
    <person id="ped141" depart="623.34" type="ped_pedestrian">
        <personTrip from="335703511#0" to="165415452#0" modes="public"/>
    </person>
    <person id="ped142" depart="627.76" type="ped_pedestrian">
        <personTrip from="272757328#1" to="52348718#0" modes="public"/>
    </person>
    <person id="ped143" depart="632.18" type="ped_pedestrian">
        <personTrip from="465376251#1" to="-31112516#2" modes="public"/>
    </person>
    <person id="ped144" depart="636.60" type="ped_pedestrian">
        <personTrip from="24540240#1" to="169230291#2" modes="public"/>
    </person>
    <person id="ped145" depart="641.02" type="ped_pedestrian">
        <personTrip from="-111833186#0" to="43239303#0" modes="public"/>
    </person>
    <person id="ped146" depart="645.44" type="ped_pedestrian">
        <personTrip from="337139761" to="164874305" modes="public"/>
    </person>
    <person id="ped147" depart="649.86" type="ped_pedestrian">
        <personTrip from="397579542" to="280007142#5" modes="public"/>
    </person>
    <person id="ped148" depart="654.28" type="ped_pedestrian">
        <personTrip from="24914141#2" to="-132460632#0" modes="public"/>
    </person>
    <person id="ped149" depart="658.70" type="ped_pedestrian">
        <personTrip from="-262407304" to="492609984" modes="public"/>
    </person>
    <person id="ped150" depart="663.12" type="ped_pedestrian">
        <personTrip from="521729368#0" to="274524387" modes="public"/>
    </person>
    <person id="ped151" depart="667.54" type="ped_pedestrian">
        <personTrip from="463829477#0" to="310177222#2" modes="public"/>
    </person>
    <person id="ped152" depart="671.96" type="ped_pedestrian">
        <personTrip from="-4611713#1" to="-4403559#0" modes="public"/>
    </person>
    <person id="ped153" depart="676.39" type="ped_pedestrian">
        <personTrip from="175885747#4" to="51236796" modes="public"/>
    </person>
    <person id="ped154" depart="680.81" type="ped_pedestrian">
        <personTrip from="456400037#0" to="4773024#1" modes="public"/>
    </person>
    <person id="ped155" depart="685.23" type="ped_pedestrian">
        <personTrip from="51236796" to="114133910#2" modes="public"/>
    </person>
    <person id="ped156" depart="689.65" type="ped_pedestrian">
        <personTrip from="156364570#1" to="-339201177#3" modes="public"/>
    </person>
    <person id="ped157" depart="694.07" type="ped_pedestrian">
        <personTrip from="437500508" to="495066404" modes="public"/>
    </person>
    <person id="ped158" depart="698.49" type="ped_pedestrian">
        <personTrip from="23851922#1" to="330832909" modes="public"/>
    </person>
    <person id="ped159" depart="702.91" type="ped_pedestrian">
        <personTrip from="-466923189" to="557076768" modes="public"/>
    </person>
    <person id="ped160" depart="707.33" type="ped_pedestrian">
        <personTrip from="4773465#3" to="66071366#1" modes="public"/>
    </person>
    <person id="ped161" depart="711.75" type="ped_pedestrian">
        <personTrip from="4610609#1" to="488668302" modes="public"/>
    </person>
    <person id="ped162" depart="716.17" type="ped_pedestrian">
        <personTrip from="-158023913#2" to="389101385" modes="public"/>
    </person>
    <person id="ped163" depart="720.59" type="ped_pedestrian">
        <personTrip from="196845298#2" to="557076772" modes="public"/>
    </person>
    <person id="ped164" depart="725.01" type="ped_pedestrian">
        <personTrip from="4610361" to="4773465#1" modes="public"/>
    </person>
    <person id="ped165" depart="729.44" type="ped_pedestrian">
        <personTrip from="4610609#1" to="165832577" modes="public"/>
    </person>
    <person id="ped166" depart="733.86" type="ped_pedestrian">
        <personTrip from="442577412#2" to="-35557143#1" modes="public"/>
    </person>
    <person id="ped167" depart="738.28" type="ped_pedestrian">
        <personTrip from="483624520" to="475297967#0" modes="public"/>
    </person>
    <person id="ped168" depart="742.70" type="ped_pedestrian">
        <personTrip from="133885749#1" to="4611699" modes="public"/>
    </person>
    <person id="ped169" depart="747.12" type="ped_pedestrian">
        <personTrip from="263821578" to="175885742" modes="public"/>
    </person>
    <person id="ped170" depart="751.54" type="ped_pedestrian">
        <personTrip from="454285423#3" to="136571494#0" modes="public"/>
    </person>
    <person id="ped171" depart="755.96" type="ped_pedestrian">
        <personTrip from="-156364570#1" to="104786912#0" modes="public"/>
    </person>
    <person id="ped172" depart="760.38" type="ped_pedestrian">
        <personTrip from="195105328#1" to="4773465#3" modes="public"/>
    </person>
    <person id="ped173" depart="764.80" type="ped_pedestrian">
        <personTrip from="606078065" to="170077661" modes="public"/>
    </person>
    <person id="ped174" depart="769.22" type="ped_pedestrian">
        <personTrip from="339201236" to="23755950#1" modes="public"/>
    </person>
    <person id="ped175" depart="773.64" type="ped_pedestrian">
        <personTrip from="72157168#4" to="274513571#1" modes="public"/>
    </person>
    <person id="ped176" depart="778.06" type="ped_pedestrian">
        <personTrip from="566154998" to="-389101365#2" modes="public"/>
    </person>
    <person id="ped177" depart="782.48" type="ped_pedestrian">
        <personTrip from="61583423#1" to="-62363401" modes="public"/>
    </person>
    <person id="ped178" depart="786.91" type="ped_pedestrian">
        <personTrip from="59332212" to="165832574#1" modes="public"/>
    </person>
    <person id="ped179" depart="791.33" type="ped_pedestrian">
        <personTrip from="-35557161#0" to="254339570" modes="public"/>
    </person>
    <person id="ped180" depart="795.75" type="ped_pedestrian">
        <personTrip from="388702039#1" to="181618202" modes="public"/>
    </person>
    <person id="ped181" depart="800.17" type="ped_pedestrian">
        <personTrip from="31609380" to="272780750#1" modes="public"/>
    </person>
    <person id="ped182" depart="804.59" type="ped_pedestrian">
        <personTrip from="23121445#0" to="308669106#0" modes="public"/>
    </person>
    <person id="ped183" depart="809.01" type="ped_pedestrian">
        <personTrip from="15968749#1" to="377634145" modes="public"/>
    </person>
    <person id="ped184" depart="813.43" type="ped_pedestrian">
        <personTrip from="-110464118#0" to="553121565" modes="public"/>
    </person>
    <person id="ped185" depart="817.85" type="ped_pedestrian">
        <personTrip from="274524361#0" to="379904843#6" modes="public"/>
    </person>
    <person id="ped186" depart="822.27" type="ped_pedestrian">
        <personTrip from="398295306" to="346213313#0" modes="public"/>
    </person>
    <person id="ped187" depart="826.69" type="ped_pedestrian">
        <personTrip from="202817674#0" to="-24243107#1" modes="public"/>
    </person>
    <person id="ped188" depart="831.11" type="ped_pedestrian">
        <personTrip from="346212656#3" to="195401013#2" modes="public"/>
    </person>
    <person id="ped189" depart="835.53" type="ped_pedestrian">
        <personTrip from="183415643" to="465376260#0" modes="public"/>
    </person>
    <person id="ped190" depart="839.96" type="ped_pedestrian">
        <personTrip from="380240681#0" to="173197451#3" modes="public"/>
    </person>
    <person id="ped191" depart="844.38" type="ped_pedestrian">
        <personTrip from="176043807#0" to="23852041#1" modes="public"/>
    </person>
    <person id="ped192" depart="848.80" type="ped_pedestrian">
        <personTrip from="23813201" to="171826987#5" modes="public"/>
    </person>
    <person id="ped193" depart="853.22" type="ped_pedestrian">
        <personTrip from="-4403559#0" to="243854725#0" modes="public"/>
    </person>
    <person id="ped194" depart="857.64" type="ped_pedestrian">
        <personTrip from="566155002" to="35269774#2" modes="public"/>
    </person>
    <person id="ped195" depart="862.06" type="ped_pedestrian">
        <personTrip from="518508124#6" to="327519011#0" modes="public"/>
    </person>
    <person id="ped196" depart="866.48" type="ped_pedestrian">
        <personTrip from="173278835" to="280007133" modes="public"/>
    </person>
    <person id="ped197" depart="870.90" type="ped_pedestrian">
        <personTrip from="-102408133#1" to="170517259" modes="public"/>
    </person>
    <person id="ped198" depart="875.32" type="ped_pedestrian">
        <personTrip from="24992424#3" to="310176513#1" modes="public"/>
    </person>
    <person id="ped199" depart="879.74" type="ped_pedestrian">
        <personTrip from="345088524#2" to="272757258#0" modes="public"/>
    </person>
    <person id="ped200" depart="884.16" type="ped_pedestrian">