<?xml version="1.0" encoding="UTF-8"?>
<!-- generated on 2021-08-16 16:16:39.368726 by $Id: ptlines2flows.py v1_3_1+0313-ccb31df3eb jakob.erdmann@dlr.de 2019-09-02 13:26:32 +0200 $ v1_9_2+1076-2531bdc00d6
  options: <doubleminus>test-output test
-->
<routes xmlns:xsi="http://www.w3.org/2001/XMLSchema-instance" xsi:noNamespaceSchemaLocation="http://sumo.dlr.de/xsd/routes_file.xsd">
    <vType id="pt_bus" vClass="bus"/>
    <vType id="pt_tram" vClass="tram"/>
    <vType id="pt_train" vClass="rail"/>
    <vType id="pt_subway" vClass="rail_urban"/>
    <vType id="pt_light_rail" vClass="rail_urban"/>
    <vType id="pt_monorail" vClass="rail"/>
    <vType id="pt_trolleybus" vClass="bus"/>
    <vType id="pt_aerialway" vClass="bus"/>
    <vType id="pt_ferry" vClass="ship"/>
    <route id="pt_light_rail_S1:0" edges="109444375" >
        <stop busStop="30353449" duration="30.00" until="66.0"/> <!-- S Oranienburger Straße -->
        <stop busStop="474368351" duration="30.00" until="97.0"/> <!-- S Friedrichstraße -->
    </route>
    <route id="pt_light_rail_S1:1" edges="237751551" >
        <stop busStop="1930939368" duration="30.00" until="64.0"/> <!-- S Friedrichstraße -->
        <stop busStop="1769645503" duration="30.00" until="95.0"/> <!-- S Oranienburger Straße -->
    </route>
    <route id="pt_tram_M2:0" edges="331114772#0 331114772#1 331114772#2 331114772#3 331114772#4 148452597#0 148452597#1 148452597#2 148458495 148458500#0 148458500#1" >
        <stop busStop="1840333892" duration="30.00" until="74.0"/> <!-- Memhardstraße -->
        <stop busStop="1615531689" duration="30.00" until="173.0"/> <!-- S+U Alexanderplatz/Dircksenstraße -->
    </route>
    <route id="pt_tram_M2:2" edges="-148458500#1 -148458500#0 148457212#0 148457212#1 148449390 4791000#0 4791000#1 4791000#2 4791000#3 4791000#4 4791000#5" >
        <stop busStop="-1615531689" duration="30.00" until="37.0"/> <!-- S+U Alexanderplatz/Dircksenstraße -->
        <stop busStop="30732068" duration="30.00" until="133.0"/> <!-- Memhardstraße -->
    </route>
    <route id="pt_tram_M2:1" edges="331114772#0 331114772#1 331114772#2 331114772#3 331114772#4 148452597#0 148452597#1 148452597#2 148458495 148458500#0 148458500#1" >
        <stop busStop="1840333892" duration="30.00" until="106.0"/> <!-- Memhardstraße -->
        <stop busStop="1615531689" duration="30.00" until="207.0"/> <!-- S+U Alexanderplatz/Dircksenstraße -->
    </route>
    <route id="pt_train_RE2:0" edges="32572630 32572622#1 32590651#1 32590900#1 25946666#1 25946666#2 421021565#1" >
        <stop busStop="3419694885" duration="30.00" until="102.0"/> <!-- Berlin Alexanderplatz -->
        <stop busStop="2603331683" duration="30.00" until="283.0"/> <!-- Berlin Friedrichstraße -->
    </route>
    <route id="pt_train_RE1:0" edges="442921387#0 442921387#1 25946656#1 25946673#1 25946674#1 25946676 32590898#1 32590890#1 32590636#1 32572618#1 32572624#1" >
        <stop busStop="29805120" duration="30.00" until="77.0"/> <!-- Berlin Friedrichstraße -->
        <stop busStop="2776873647" duration="30.00" until="238.0"/> <!-- Berlin Alexanderplatz -->
    </route>
    <route id="pt_light_rail_S5:1" edges="4471823#0 4471823#1 4471818#1 25946681 4471817#1 72984377#1 32590438 32590434#1" >
        <stop busStop="27412232" duration="30.00" until="58.0"/> <!-- S Friedrichstraße -->
        <stop busStop="27411240" duration="30.00" until="151.0"/> <!-- S Hackescher Markt -->
        <stop busStop="27411231" duration="30.00" until="197.0"/> <!-- S Alexanderplatz -->
    </route>
    <route id="pt_light_rail_S5:0" edges="32590425 32590433#1 32590433#2 72984388#1 25946685#1 25946685#2 29384521#1 29384522#1" >
        <stop busStop="574265352" duration="30.00" until="69.0"/> <!-- S Alexanderplatz -->
        <stop busStop="1745157971" duration="30.00" until="125.0"/> <!-- S Hackescher Markt -->
        <stop busStop="2603331695" duration="30.00" until="225.0"/> <!-- S Friedrichstraße -->
    </route>
    <route id="pt_bus_TXL:0" edges="236092221#0 236092221#1 342968607#1 461526152 340498982#0 340498982#1 340498982#3 340498982#4 340498982#7 354528932 251884680 339201217 15971196#0 15971196#1 54048862#0 54048862#2 54048862#3 23013165#0 23013165#1 23013165#2 4611698#1 202156994#0 72157174#1 171826984#2 171826984#3 171826984#4 171826984#5 195401006 195401017#3" >
        <stop busStop="3869306771" duration="30.00" until="121.0"/> <!-- Unter den Linden/Friedrichstraße -->
        <stop busStop="3870475228" duration="30.00" until="194.0"/> <!-- Staatsoper -->
        <stop busStop="1827996414" duration="30.00" until="323.0"/> <!-- Spandauer Straße/Marienkirche -->
        <stop busStop="270718978" duration="30.00" until="420.0"/> <!-- S+U Alexanderplatz/Memhardstraße -->
    </route>
    <route id="pt_tram_12:1" edges="144014228#2 207364192#1 207364192#2 207364192#3 207364192#4 167272512#0 167272512#2 167272512#3 167272512#4 167272512#5 167272512#6 167272512#7 195411594#2 195411594#1 195411594#0 165409971#1 165409971#0 388702049#1 388702049#2 167272531#0 167272531#1 167272531#2 167272531#3 167272531#4 167272531#5 167272531#6 167272531#7 167272531#8 167272531#9 167272531#10 167140669#0 167140669#1 167140669#2 167140669#3" >
        <stop busStop="2175753204" duration="30.00" until="39.0"/> <!-- Am Kupfergraben -->
        <stop busStop="1673526976" duration="30.00" until="107.0"/> <!-- Georgenstraße/Am Kupfergraben -->
        <stop busStop="1823298700" duration="30.00" until="195.0"/> <!-- S+U Friedrichstraße -->
        <stop busStop="30731700" duration="30.00" until="283.0"/> <!-- U Oranienburger Tor -->
    </route>
    <route id="pt_light_rail_S2:0" edges="109444375" >
        <stop busStop="30353449" duration="30.00" until="66.0"/> <!-- S Oranienburger Straße -->
        <stop busStop="474368351" duration="30.00" until="97.0"/> <!-- S Friedrichstraße -->
    </route>
    <route id="pt_tram_M4:0" edges="317013528#0 317013528#1 317013528#2 317013528#3 150394034#0 150394034#1 150394034#2 150394034#3 150394034#4 150394034#5 150394035#0 150394035#1 150394035#2 150394035#3 150394035#4 10597134#1 421641064" >
        <stop busStop="1789092673" duration="30.00" until="82.0"/> <!-- U Alexanderplatz -->
        <stop busStop="1860777041" duration="30.00" until="165.0"/> <!-- S+U Alexanderplatz/Gontardstraße -->
        <stop busStop="4673135647" duration="30.00" until="274.0"/> <!-- Spandauer Straße/Marienkirche -->
        <stop busStop="1633759766" duration="30.00" until="341.0"/> <!-- S Hackescher Markt -->
    </route>
    <route id="pt_tram_M4:2" edges="23960874#0 23960874#2 144014234#1 144014234#2 167523653#1 167523653#2 22962554#1 22962554#2 150394036#1 93628049#0 93628049#1 93628049#2 93628049#3 93628049#4 301733774#1" >
        <stop busStop="1633759760" duration="30.00" until="41.0"/> <!-- S Hackescher Markt -->
        <stop busStop="30731481" duration="30.00" until="92.0"/> <!-- Spandauer Straße/Marienkirche -->
        <stop busStop="30731508" duration="30.00" until="224.0"/> <!-- S+U Alexanderplatz/Gontardstraße -->
        <stop busStop="30731497" duration="30.00" until="311.0"/> <!-- U Alexanderplatz -->
    </route>
    <route id="pt_light_rail_S2:1" edges="237751551" >
        <stop busStop="1930939368" duration="30.00" until="64.0"/> <!-- S Friedrichstraße -->
        <stop busStop="1769645503" duration="30.00" until="95.0"/> <!-- S Oranienburger Straße -->
    </route>
    <route id="pt_tram_12:0" edges="6228154#0 6228154#1 30122986#0 30122986#1 168453605#0 168453605#1 168453605#2 168453605#3 168453605#4 168453605#5 388702047#0 388702047#1 388702047#2 388702047#3 388702047#4 93584120#2 93584120#3 93584120#4 195411601#1 195411601#0 22820560#2 22820560#1 22820560#0 93584121#1 144014237#0 144014237#1 144014237#2 144014228#0 144014228#1 144014228#2" >
        <stop busStop="990017251" duration="30.00" until="62.0"/> <!-- U Oranienburger Tor -->
        <stop busStop="247600965" duration="30.00" until="164.0"/> <!-- S+U Friedrichstraße -->
        <stop busStop="3922258748" duration="30.00" until="265.0"/> <!-- Universitätsstraße -->
        <stop busStop="2175753204" duration="30.00" until="348.0"/> <!-- Am Kupfergraben -->
    </route>
    <route id="pt_bus_M48:1" edges="195401013#3 24914992#1 171826985#0 171826985#1 171826985#3 -534588621#1 -534588621#0 606078071#0 606078071#3 61583423#0 -156364553#1 -156364553#0 -606078065 81112790#1 23851927#0 23851927#1 23851927#2 233835641#0 4773463#0 4773463#2" >
        <stop busStop="270727248" duration="30.00" until="31.0"/> <!-- S+U Alexanderplatz -->
        <stop busStop="1827996417" duration="30.00" until="87.0"/> <!-- Spandauer Straße/Marienkirche -->
        <stop busStop="3867910424" duration="30.00" until="201.0"/> <!-- Nikolaiviertel -->
        <stop busStop="3352479219" duration="30.00" until="272.0"/> <!-- Fischerinsel -->
    </route>
    <route id="pt_train_RE1:1" edges="32572630 32572622#1 32590651#1 32590900#1 25946666#1 25946666#2 421021565#1" >
        <stop busStop="3419694885" duration="30.00" until="236.0"/> <!-- Berlin Alexanderplatz -->
        <stop busStop="2603331683" duration="30.00" until="417.0"/> <!-- Berlin Friedrichstraße -->
    </route>
    <route id="pt_bus_TXL:1" edges="112128419#2 415280722 195401013#2 195401013#3 24914992#1 171826985#0 171826985#1 171826985#3 24913519#1 24913519#2 541763975 202156995#0 202156995#1 4067932#1 339201219 61584187#1 61584187#2 61584187#3 61584187#4 54048863 15971197 4611699 169195795#0 169195795#1 169195795#2 169195795#5 169195795#6 169195795#7 169195795#8 169195795#10 340498988 188386313#0 188386313#1 24913304#1" >
        <stop busStop="270719334" duration="30.00" until="31.0"/> <!-- S+U Alexanderplatz/Memhardstraße -->
        <stop busStop="270727248" duration="30.00" until="94.0"/> <!-- S+U Alexanderplatz -->
        <stop busStop="1827996417" duration="30.00" until="148.0"/> <!-- Spandauer Straße/Marienkirche -->
        <stop busStop="271296293" duration="30.00" until="318.0"/> <!-- Staatsoper -->
        <stop busStop="272408975" duration="30.00" until="400.0"/> <!-- Unter den Linden/Friedrichstraße -->
        <stop busStop="271373068" duration="30.00" until="467.0"/> <!-- S+U Brandenburger Tor -->
    </route>
    <route id="pt_train_RB21:0" edges="25946661" >
        <stop busStop="366500582" duration="30.00" until="36.0"/> <!-- Berlin Friedrichstraße -->
    </route>
    <route id="pt_light_rail_S25:1" edges="237751551" >
        <stop busStop="1930939368" duration="30.00" until="59.0"/> <!-- S Friedrichstraße -->
        <stop busStop="1769645503" duration="30.00" until="90.0"/> <!-- S Oranienburger Straße -->
    </route>
    <route id="pt_tram_M4:1" edges="317013528#0 317013528#1 317013528#2 317013528#3 150394034#0 150394034#1 150394034#2 150394034#3 150394034#4 150394034#5 150394035#0 150394035#1 150394035#2 150394035#3 150394035#4 10597134#1 421641064" >
        <stop busStop="1789092673" duration="30.00" until="114.0"/> <!-- U Alexanderplatz -->
        <stop busStop="1860777041" duration="30.00" until="197.0"/> <!-- S+U Alexanderplatz/Gontardstraße -->
        <stop busStop="4673135647" duration="30.00" until="314.0"/> <!-- Spandauer Straße/Marienkirche -->
        <stop busStop="1633759766" duration="30.00" until="381.0"/> <!-- S Hackescher Markt -->
    </route>
    <route id="pt_tram_M4:3" edges="23960874#0 23960874#2 144014234#1 144014234#2 167523653#1 167523653#2 22962554#1 22962554#2 150394036#1 93628049#0 93628049#1 93628049#2 93628049#3 93628049#4 301733774#1" >
        <stop busStop="1633759760" duration="30.00" until="73.0"/> <!-- S Hackescher Markt -->
        <stop busStop="30731481" duration="30.00" until="125.0"/> <!-- Spandauer Straße/Marienkirche -->
        <stop busStop="30731508" duration="30.00" until="256.0"/> <!-- S+U Alexanderplatz/Gontardstraße -->
        <stop busStop="30731497" duration="30.00" until="343.0"/> <!-- U Alexanderplatz -->
    </route>
    <route id="pt_bus_248:1" edges="328426208#0 23851917#0 23851917#2 23851922#1 60333313 82654055#0 82654055#1 60333311#1 60333311#2 289966097 289966281 289830064 289966845 289967595#0 82659290#0 66311464#1" >
        <stop busStop="3352479220" duration="30.00" until="62.0"/> <!-- Fischerinsel -->
        <stop busStop="3867910416" duration="30.00" until="132.0"/> <!-- Berliner Rathaus -->
        <stop busStop="3907105048" duration="30.00" until="200.0"/> <!-- Littenstraße -->
    </route>
    <route id="pt_light_rail_S7:1" edges="4471823#0 4471823#1 4471818#1 25946681 4471817#1 72984377#1 32590438 32590434#1" >
        <stop busStop="27412232" duration="30.00" until="51.0"/> <!-- S Friedrichstraße -->
        <stop busStop="27411240" duration="30.00" until="270.0"/> <!-- S Hackescher Markt -->
        <stop busStop="27411231" duration="30.00" until="316.0"/> <!-- S Alexanderplatz -->
    </route>
    <route id="pt_bus_N5:1" edges="-478396988 -370359204#0 -316746323#2 46140376#1 -84960597#1 -84960597#0 11103418 23809678#1 23809678#4 -19002363#6 -19002363#4 -19002363#3 -19002363#2 -19002363#1 4613292#0 4613308#1 4613308#2 310357284#0 100405009#0 100405009#2 100405009#3 100405009#4 305093247#0 305093247#2 305093328#1 163368988#3 301733776" >
        <stop busStop="-3867910429" duration="30.00" until="38.0"/> <!-- S Hackescher Markt -->
        <stop busStop="3867910439" duration="30.00" until="131.0"/> <!-- U Weinmeisterstraße -->
        <stop busStop="271670135" duration="30.00" until="274.0"/> <!-- U Alexanderplatz -->
    </route>
    <route id="pt_light_rail_S25:0" edges="109444375" >
        <stop busStop="30353449" duration="30.00" until="102.0"/> <!-- S Oranienburger Straße -->
        <stop busStop="474368351" duration="30.00" until="133.0"/> <!-- S Friedrichstraße -->
    </route>
    <route id="pt_bus_100:1" edges="236092221#0 236092221#1 342968607#1 461526152 340498982#0 340498982#1 340498982#3 340498982#4 340498982#7 354528932 251884680 339201217 15971196#0 15971196#1 54048862#0 54048862#2 54048862#3 23013165#0 23013165#1 23013165#2 4611698#1 202156994#0 72157174#1 171826984#2 171826984#3 171826984#4 171826984#5 195401006 195401017#3" >
        <stop busStop="3869306771" duration="30.00" until="130.0"/> <!-- Unter den Linden/Friedrichstraße -->
        <stop busStop="3870475228" duration="30.00" until="205.0"/> <!-- Staatsoper -->
        <stop busStop="3867910421" duration="30.00" until="302.0"/> <!-- Lustgarten -->
        <stop busStop="1827996414" duration="30.00" until="378.0"/> <!-- Spandauer Straße/Marienkirche -->
        <stop busStop="270718978" duration="30.00" until="489.0"/> <!-- S+U Alexanderplatz/Memhardstraße -->
    </route>
    <route id="pt_bus_248:0" edges="313195119 188047750 312514710#0 30826268#1 316092515 309155392 195407521 309147331#0 309147331#1 344594962 312357351 309479676 4611726 82649618#0 82649618#1 81112790#1 23851927#0 23851927#1 23851927#2 233835641#0 4773463#0 4773463#2" >
        <stop busStop="3867910432" duration="30.00" until="56.0"/> <!-- S+U Alexanderplatz/Grunerstraße -->
        <stop busStop="3867910417" duration="30.00" until="118.0"/> <!-- Berliner Rathaus -->
        <stop busStop="3867910424" duration="30.00" until="218.0"/> <!-- Nikolaiviertel -->
        <stop busStop="3352479219" duration="30.00" until="291.0"/> <!-- Fischerinsel -->
    </route>
    <route id="pt_tram_M6:1" edges="23960874#0 23960874#2 144014234#1 144014234#2 167523653#1 167523653#2 22962554#1 22962554#2 150394036#1 93628049#0 93628049#1 93628049#2 93628049#3 93628049#4 301733774#1" >
        <stop busStop="1633759760" duration="30.00" until="72.0"/> <!-- S Hackescher Markt -->
        <stop busStop="30731481" duration="30.00" until="124.0"/> <!-- Spandauer Straße/Marienkirche -->
        <stop busStop="30731508" duration="30.00" until="255.0"/> <!-- S+U Alexanderplatz/Gontardstraße -->
        <stop busStop="30731497" duration="30.00" until="342.0"/> <!-- U Alexanderplatz -->
    </route>
    <route id="pt_light_rail_S7:0" edges="32590425 32590433#1 32590433#2 72984388#1 25946685#1 25946685#2 29384521#1 29384522#1" >
        <stop busStop="574265352" duration="30.00" until="65.0"/> <!-- S Alexanderplatz -->
        <stop busStop="1745157971" duration="30.00" until="286.0"/> <!-- S Hackescher Markt -->
        <stop busStop="2603331695" duration="30.00" until="386.0"/> <!-- S Friedrichstraße -->
    </route>
    <route id="pt_bus_M48:0" edges="328426208#0 23851917#0 23851917#2 23851922#1 60333313 82654055#0 82654055#1 24992428 606078065 156364553#0 156364553#1 72157172 61583424#0 61583424#1 61583424#2 534588621#0 534588621#1 72157174#1 171826984#2 171826984#3 171826984#4 171826984#5 195401006 195401017#3" >
        <stop busStop="3352479220" duration="30.00" until="63.0"/> <!-- Fischerinsel -->
        <stop busStop="271430924" duration="30.00" until="171.0"/> <!-- Berliner Rathaus -->
        <stop busStop="1827996414" duration="30.00" until="300.0"/> <!-- Spandauer Straße/Marienkirche -->
        <stop busStop="270718978" duration="30.00" until="387.0"/> <!-- S+U Alexanderplatz/Memhardstraße -->
    </route>
    <route id="pt_tram_M6:0" edges="317013528#0 317013528#1 317013528#2 317013528#3 150394034#0 150394034#1 150394034#2 150394034#3 150394034#4 150394034#5 150394035#0 150394035#1 150394035#2 150394035#3 150394035#4 10597134#1 421641064" >
        <stop busStop="1789092673" duration="30.00" until="152.0"/> <!-- U Alexanderplatz -->
        <stop busStop="1860777041" duration="30.00" until="235.0"/> <!-- S+U Alexanderplatz/Gontardstraße -->
        <stop busStop="4673135647" duration="30.00" until="360.0"/> <!-- Spandauer Straße/Marienkirche -->
        <stop busStop="1633759766" duration="30.00" until="427.0"/> <!-- S Hackescher Markt -->
    </route>
    <route id="pt_tram_M2:3" edges="-148458500#1 -148458500#0 148457212#0 148457212#1 148449390 4791000#0 4791000#1 4791000#2 4791000#3 4791000#4 4791000#5" >
        <stop busStop="-1615531689" duration="30.00" until="37.0"/> <!-- S+U Alexanderplatz/Dircksenstraße -->
        <stop busStop="30732068" duration="30.00" until="133.0"/> <!-- Memhardstraße -->
    </route>
    <route id="pt_bus_100:0" edges="112128419#2 415280722 195401013#2 195401013#3 24914992#1 171826985#0 171826985#1 171826985#3 24913519#1 24913519#2 541763975 202156995#0 202156995#1 4067932#1 339201219 61584187#1 61584187#2 61584187#3 61584187#4 54048863 15971197 4611699 169195795#0 169195795#1 169195795#2 169195795#5 169195795#6 169195795#7 169195795#8 169195795#10 340498988 188386313#0 188386313#1 24913304#1" >
        <stop busStop="270719334" duration="30.00" until="31.0"/> <!-- S+U Alexanderplatz/Memhardstraße -->
        <stop busStop="270727248" duration="30.00" until="98.0"/> <!-- S+U Alexanderplatz -->
        <stop busStop="1827996417" duration="30.00" until="152.0"/> <!-- Spandauer Straße/Marienkirche -->
        <stop busStop="3867910420" duration="30.00" until="276.0"/> <!-- Lustgarten -->
        <stop busStop="271296293" duration="30.00" until="350.0"/> <!-- Staatsoper -->
        <stop busStop="272408975" duration="30.00" until="445.0"/> <!-- Unter den Linden/Friedrichstraße -->
        <stop busStop="271373068" duration="30.00" until="532.0"/> <!-- S+U Brandenburger Tor -->
    </route>
    <route id="pt_bus_N5:0" edges="47016365#0 301241483#2 301241681#0 301241681#1 301241681#2 301241681#5 301241681#6 246052428 301167584#0 112128419#1 112128419#2 415280722 195401013#2 195401013#3 24914992#1 171826985#0 171826985#1 171826985#3 4773465#1 4773465#2 4773465#3 490365295#1 -156364570#3 -156364570#1 -156364570#0 -77348147 -387892378 -478396988" >
        <stop busStop="3907105049" duration="30.00" until="50.0"/> <!-- U Alexanderplatz -->
        <stop busStop="270727260" duration="30.00" until="131.0"/> <!-- S+U Alexanderplatz/Memhardstraße -->
        <stop busStop="270727248" duration="30.00" until="206.0"/> <!-- S+U Alexanderplatz -->
        <stop busStop="1827996417" duration="30.00" until="261.0"/> <!-- Spandauer Straße/Marienkirche -->
        <stop busStop="-3867910429" duration="30.00" until="356.0"/> <!-- S Hackescher Markt -->
    </route>
    <route id="pt_train_RB21:1" edges="25946661 32590921#1 442921388" >
        <stop busStop="366500582" duration="30.00" until="36.0"/> <!-- Berlin Friedrichstraße -->
    </route>
    <route id="pt_light_rail_S2:3" edges="237751551" >
        <stop busStop="1930939368" duration="30.00" until="64.0"/> <!-- S Friedrichstraße -->
        <stop busStop="1769645503" duration="30.00" until="95.0"/> <!-- S Oranienburger Straße -->
    </route>
    <route id="pt_subway_U2:0" edges="200422335#0 200422335#1" >
        <stop busStop="2094266782" duration="30.00" until="69.0"/> <!-- U Rosa-Luxemburg-Platz -->
        <stop busStop="2094266778" duration="30.00" until="142.0"/> <!-- U Alexanderplatz -->
        <stop busStop="2094266781" duration="30.00" until="173.0"/> <!-- U Klosterstraße -->
    </route>
    <route id="pt_subway_U6:0" edges="169724406 295250353#1 295250353#2 295376548" >
        <stop busStop="2071423352" duration="30.00" until="50.0"/> <!-- U Französische Straße -->
        <stop busStop="3869306769" duration="30.00" until="121.0"/> <!-- S+U Friedrichstraße -->
        <stop busStop="3043709616" duration="30.00" until="152.0"/> <!-- U Oranienburger Tor -->
    </route>
    <route id="pt_light_rail_S2:2" edges="109444375" >
        <stop busStop="30353449" duration="30.00" until="90.0"/> <!-- S Oranienburger Straße -->
        <stop busStop="474368351" duration="30.00" until="121.0"/> <!-- S Friedrichstraße -->
    </route>
    <route id="pt_subway_U6:1" edges="378664954 335043673#0 335043673#1 335043673#2 387125527 295255789" >
        <stop busStop="29058100" duration="30.00" until="71.0"/> <!-- U Oranienburger Tor -->
        <stop busStop="2792364395" duration="30.00" until="102.0"/> <!-- S+U Friedrichstraße -->
        <stop busStop="2071423334" duration="30.00" until="196.0"/> <!-- U Französische Straße -->
    </route>
    <route id="pt_subway_U2:1" edges="384294423 177195505#1 272795470#1" >
        <stop busStop="29495029" duration="30.00" until="55.0"/> <!-- U Klosterstraße -->
        <stop busStop="2094266780" duration="30.00" until="132.0"/> <!-- U Alexanderplatz -->
        <stop busStop="4961125734" duration="30.00" until="214.0"/> <!-- U Rosa-Luxemburg-Platz -->
    </route>
    <route id="pt_bus_265:0" edges="328426193#0 4773463#0 4773463#2" >
        <stop busStop="3352479219" duration="30.00" until="45.0"/> <!-- Fischerinsel -->
    </route>
    <route id="pt_tram_M5:1" edges="30719903#0 30719903#1 30719903#2 101699672 143891040#1 143891040#2 101699676#1 101699676#2 101699676#3 101699676#4 30721656#1 30721656#2 30721656#3 30721656#4 421641065#0 421641065#1 30123145#0 30123145#1 30123145#2 23960874#0 23960874#2 144014234#1 144014234#2 167523653#1 167523653#2 22962554#1 22962554#2 150394036#1 93628049#0 93628049#1 93628049#2 93628049#3 93628049#4 301733774#1" >
        <stop busStop="1668717159" duration="30.00" until="48.0"/> <!-- S Oranienburger Straße -->
        <stop busStop="963600646" duration="30.00" until="132.0"/> <!-- Monbijouplatz -->
        <stop busStop="1633759760" duration="30.00" until="226.0"/> <!-- S Hackescher Markt -->
        <stop busStop="30731481" duration="30.00" until="277.0"/> <!-- Spandauer Straße/Marienkirche -->
        <stop busStop="30731508" duration="30.00" until="394.0"/> <!-- S+U Alexanderplatz/Gontardstraße -->
        <stop busStop="30731497" duration="30.00" until="481.0"/> <!-- U Alexanderplatz -->
    </route>
    <route id="pt_subway_U8:1" edges="381201610" >
        <stop busStop="5227235608" duration="30.00" until="75.0"/> <!-- U Rosenthaler Platz -->
        <stop busStop="4655287360" duration="30.00" until="142.0"/> <!-- U Weinmeisterstraße -->
        <stop busStop="2094266775" duration="30.00" until="173.0"/> <!-- U Alexanderplatz -->
        <stop busStop="3834324122" duration="30.00" until="204.0"/> <!-- S+U Jannowitzbrücke -->
    </route>
    <route id="pt_light_rail_S3:1" edges="4471823#0 4471823#1 4471818#1 25946681 4471817#1 72984377#1 32590438 32590434#1" >
        <stop busStop="27412232" duration="30.00" until="58.0"/> <!-- S Friedrichstraße -->
        <stop busStop="27411240" duration="30.00" until="233.0"/> <!-- S Hackescher Markt -->
        <stop busStop="27411231" duration="30.00" until="279.0"/> <!-- S Alexanderplatz -->
    </route>
    <route id="pt_train_RB22:0" edges="25946661 32590921#1 442921388" >
        <stop busStop="366500582" duration="30.00" until="36.0"/> <!-- Berlin Friedrichstraße -->
    </route>
    <route id="pt_train_RE2:2" edges="32572630 32572622#1 32590651#1 32590900#1 25946666#1 25946666#2 421021565#1" >
        <stop busStop="3419694885" duration="30.00" until="102.0"/> <!-- Berlin Alexanderplatz -->
        <stop busStop="2603331683" duration="30.00" until="283.0"/> <!-- Berlin Friedrichstraße -->
    </route>
    <route id="pt_train_RE2:1" edges="442921387#0 442921387#1 25946656#1 25946673#1 25946674#1 25946676 32590898#1 32590890#1 32590636#1 32572618#1 32572624#1" >
        <stop busStop="29805120" duration="30.00" until="77.0"/> <!-- Berlin Friedrichstraße -->
        <stop busStop="2776873647" duration="30.00" until="238.0"/> <!-- Berlin Alexanderplatz -->
    </route>
    <route id="pt_subway_U8:0" edges="379102293#1" >
        <stop busStop="3824719830" duration="30.00" until="58.0"/> <!-- S+U Jannowitzbrücke -->
        <stop busStop="2094266983" duration="30.00" until="124.0"/> <!-- U Alexanderplatz -->
        <stop busStop="4655287361" duration="30.00" until="155.0"/> <!-- U Weinmeisterstraße -->
        <stop busStop="5227235607" duration="30.00" until="186.0"/> <!-- U Rosenthaler Platz -->
        <stop busStop="29190909" duration="30.00" until="217.0"/> <!-- U Bernauer Straße -->
    </route>
    <route id="pt_bus_N6:0" edges="6227654#0 6227654#2 465376252 388702039#0 388702039#1 388702039#2 388702039#3 388702039#4 388702039#5 388702039#6 388702047#0 388702047#1 388702047#2 388702039#10 388702047#4 541295978 389705415#1 -541295974 6228081 -222328410 -465376254 -4402228 190447768#1 195411602#1 465376240 195411604 11483007 -169999355 -461526153 -194069450#1 -194069450#0 171423001#0 171423001#1 171423001#2 42102542#1 196850608#0 196850608#1 196850606#0" >
        <stop busStop="3918673888" duration="30.00" until="100.0"/> <!-- U Oranienburger Tor -->
        <stop busStop="-3869306765" duration="30.00" until="277.0"/> <!-- S+U Friedrichstraße -->
        <stop busStop="-3869306770" duration="30.00" until="402.0"/> <!-- Unter den Linden/Friedrichstraße -->
        <stop busStop="2959830774" duration="30.00" until="487.0"/> <!-- U Stadtmitte -->
    </route>
    <route id="pt_train_RB22:1" edges="25946661" >
        <stop busStop="366500582" duration="30.00" until="36.0"/> <!-- Berlin Friedrichstraße -->
    </route>
    <route id="pt_light_rail_S26:0" edges="237751551" >
        <stop busStop="1930939368" duration="30.00" until="64.0"/> <!-- S Friedrichstraße -->
        <stop busStop="1769645503" duration="30.00" until="95.0"/> <!-- S Oranienburger Straße -->
    </route>
    <route id="pt_bus_200:1" edges="-326116285#2 -326116285#1 -4402014#3 -4402014#2 -326116286#2 -24913267#3 -24913267#2 342968607#1 461526152 340498982#0 340498982#1 340498982#3 340498982#4 340498982#7 354528932 251884680 339201217 15971196#0 15971196#1 54048862#0 54048862#2 54048862#3 23013165#0 23013165#1 23013165#2 4611698#1 202156994#0 72157174#1 171826984#2 171826984#3 171826984#4 171826984#5 195401006 195401017#3 139877314#1 139877314#2 310357283#0 112128418#1 112128418#2 112128418#3 112128418#5 112128418#6 457031289 309300320#0" >
        <stop busStop="-4692172068" duration="30.00" until="36.0"/> <!-- Behrenstraße/Wilhelmstraße -->
        <stop busStop="3869306771" duration="30.00" until="162.0"/> <!-- Unter den Linden/Friedrichstraße -->
        <stop busStop="3870475228" duration="30.00" until="224.0"/> <!-- Staatsoper -->
        <stop busStop="3867910421" duration="30.00" until="328.0"/> <!-- Lustgarten -->
        <stop busStop="1827996414" duration="30.00" until="425.0"/> <!-- Spandauer Straße/Marienkirche -->
        <stop busStop="270718978" duration="30.00" until="538.0"/> <!-- S+U Alexanderplatz/Memhardstraße -->
    </route>
    <route id="pt_light_rail_S26:1" edges="109444375" >
        <stop busStop="30353449" duration="30.00" until="66.0"/> <!-- S Oranienburger Straße -->
        <stop busStop="474368351" duration="30.00" until="97.0"/> <!-- S Friedrichstraße -->
    </route>
    <route id="pt_tram_M1:2" edges="153537614#0 153537614#1 153537614#2 153522303#0 153522303#1 46140393 101699692#1 101699679#0 101699679#1 101699679#2 101699679#3 154321040#1 154321040#2 167140670#1 167140670#3 167140670#4 30122986#0 30122986#1 168453605#0 168453605#1 168453605#2 168453605#3 168453605#4 168453605#5 388702047#0 388702047#1 388702047#2 388702047#3 388702047#4 93584120#2 93584120#3 93584120#4 195411601#1 195411601#0 22820560#2 22820560#1 22820560#0 93584121#1 144014237#0 144014237#1 144014237#2 144014228#0 144014228#1 144014228#2 207364192#1 207364192#2 144014230#1 144014230#2 144014230#4" >
        <stop busStop="1668497956" duration="30.00" until="85.0"/> <!-- S Hackescher Markt -->
        <stop busStop="1661927028" duration="30.00" until="146.0"/> <!-- Monbijouplatz -->
        <stop busStop="1862699772" duration="30.00" until="218.0"/> <!-- S Oranienburger Straße -->
        <stop busStop="1668685086" duration="30.00" until="281.0"/> <!-- U Oranienburger Tor -->
        <stop busStop="990017251" duration="30.00" until="343.0"/> <!-- U Oranienburger Tor -->
        <stop busStop="247600965" duration="30.00" until="433.0"/> <!-- S+U Friedrichstraße -->
        <stop busStop="3922258748" duration="30.00" until="503.0"/> <!-- Universitätsstraße -->
        <stop busStop="247603398" duration="30.00" until="575.0"/> <!-- Am Kupfergraben -->
    </route>