<?xml version="1.0" encoding="UTF-8"?>

<!-- generated on 2026-03-20T13:03:08.271939+01:00 by Eclipse SUMO sumo v1_26_0+0736-a86b6e37931
This data file and the accompanying materials
are made available under the terms of the Eclipse Public License v2.0
which accompanies this distribution, and is available at
http://www.eclipse.org/legal/epl-v20.html
This file may also be made available under the following Secondary
Licenses when the conditions for such availability set forth in the Eclipse
Public License 2.0 are satisfied: GNU General Public License, version 2
or later which is available at
https://www.gnu.org/licenses/old-licenses/gpl-2.0-standalone.html
SPDX-License-Identifier: EPL-2.0 OR GPL-2.0-or-later
<sumoConfiguration xmlns:xsi="http://www.w3.org/2001/XMLSchema-instance" xsi:noNamespaceSchemaLocation="http://sumo.dlr.de/xsd/sumoConfiguration.xsd">

    <input>
        <net-file value="motorway.net.xml"/>
        <route-files value="input_routes.rou.xml"/>
        <additional-files value="input_additional.add.xml"/>
    </input>

    <output>
        <write-license value="true"/>
        <lanechange-output value="lanechanges.xml"/>
    </output>

    <processing>
        <max-depart-delay value="1"/>
        <default.speeddev value="0"/>
    </processing>

    <report>
        <xml-validation value="never"/>
        <duration-log.statistics value="true"/>
        <no-step-log value="true"/>
    </report>

</sumoConfiguration>
-->

<lanechanges>
    <change id="main0.1" type="t0" time="9.00" from="beg2_0" to="beg2_1" dir="1" speed="34.64" pos="225.30" reason="speedGain" leaderGap="None" leaderSecureGap="None" leaderSpeed="None" followerGap="None" followerSecureGap="None" followerSpeed="None" origLeaderGap="49.91" origLeaderSecureGap="40.11" origLeaderSpeed="33.86"/>
    <change id="main1.11" type="t0" time="44.00" from="beg2_1" to="beg2_0" dir="-1" speed="18.98" pos="1074.79" reason="keepRight" leaderGap="None" leaderSecureGap="None" leaderSpeed="None" followerGap="69.79" followerSecureGap="0.00" followerSpeed="0.00" origLeaderGap="259.76" origLeaderSecureGap="0.00" origLeaderSpeed="34.50"/>
    <change id="main1.9" type="t0" time="46.00" from="beg2_1" to="beg2_0" dir="-1" speed="35.15" pos="1485.85" reason="keepRight" leaderGap="None" leaderSecureGap="None" leaderSpeed="None" followerGap="363.12" followerSecureGap="0.00" followerSpeed="22.49" origLeaderGap="95.21" origLeaderSecureGap="27.62" origLeaderSpeed="36.19"/>
    <change id="main0.0" type="t0" time="46.00" from="beg2_0" to="beg2_1" dir="1" speed="0.00" pos="992.50" reason="strategic|urgent" leaderGap="7.91" leaderSecureGap="0.00" leaderSpeed="7.45" followerGap="2.91" followerSecureGap="0.00" followerSpeed="0.00" origLeaderGap="2.50" origLeaderSecureGap="0.00" origLeaderSpeed="0.00"/>
    <change id="main0.1" type="t0" time="47.00" from="beg2_1" to="beg2_0" dir="-1" speed="36.51" pos="1622.56" reason="keepRight" leaderGap="None" leaderSecureGap="None" leaderSpeed="None" followerGap="95.83" followerSecureGap="31.03" followerSpeed="35.89" origLeaderGap="None" origLeaderSecureGap="None" origLeaderSpeed="None"/>
    <change id="main1.10" type="t0" time="50.00" from="beg2_1" to="beg2_0" dir="-1" speed="34.39" pos="1548.64" reason="keepRight" leaderGap="74.88" leaderSecureGap="27.94" leaderSpeed="35.32" followerGap="315.32" followerSecureGap="3.21" followerSpeed="30.35" origLeaderGap="None" origLeaderSecureGap="None" origLeaderSpeed="None"/>
    <change id="main0.2" type="t0" time="51.00" from="beg2_0" to="beg2_1" dir="1" speed="0.25" pos="992.45" reason="strategic|urgent" leaderGap="6.62" leaderSecureGap="0.00" leaderSpeed="7.16" followerGap="5.14" followerSecureGap="0.00" followerSpeed="1.34" origLeaderGap="2.55" origLeaderSecureGap="0.00" origLeaderSpeed="0.00"/>
    <change id="main0.0" type="t0" time="55.00" from="beg2_1" to="beg2_0" dir="-1" speed="16.09" pos="1075.05" reason="keepRight" leaderGap="309.10" leaderSecureGap="0.00" leaderSpeed="31.95" followerGap="70.05" followerSecureGap="0.00" followerSpeed="0.00" origLeaderGap="66.47" origLeaderSecureGap="0.00" origLeaderSpeed="23.45"/>
    <change id="main0.3" type="t0" time="55.00" from="beg2_0" to="beg2_1" dir="1" speed="0.60" pos="986.53" reason="strategic|urgent" leaderGap="5.95" leaderSecureGap="0.00" leaderSpeed="6.80" followerGap="5.08" followerSecureGap="0.00" followerSpeed="0.00" origLeaderGap="8.47" origLeaderSecureGap="0.60" origLeaderSpeed="0.00"/>
    <change id="main0.4" type="t0" time="59.00" from="beg2_0" to="beg2_1" dir="1" speed="2.41" pos="980.51" reason="strategic|urgent" leaderGap="5.41" leaderSecureGap="0.94" leaderSpeed="5.97" followerGap="6.54" followerSecureGap="0.01" followerSpeed="0.01" origLeaderGap="14.49" origLeaderSecureGap="2.41" origLeaderSpeed="0.00"/>
    <change id="main0.7" type="t0" time="62.00" from="beg2_0" to="beg2_1" dir="1" speed="1.22" pos="972.29" reason="strategic|urgent" leaderGap="4.64" leaderSecureGap="0.00" leaderSpeed="5.88" followerGap="5.80" followerSecureGap="0.01" followerSpeed="0.01" origLeaderGap="22.71" origLeaderSecureGap="1.22" origLeaderSpeed="0.00"/>
    <change id="main0.8" type="t0" time="65.00" from="beg2_0" to="beg2_1" dir="1" speed="5.00" pos="972.65" reason="strategic|urgent" leaderGap="10.00" leaderSecureGap="2.92" leaderSpeed="7.08" followerGap="4.35" followerSecureGap="0.00" followerSpeed="0.09" origLeaderGap="22.35" origLeaderSecureGap="5.51" origLeaderSpeed="0.00"/>
    <change id="main0.4" type="t0" time="68.00" from="beg2_1" to="beg2_0" dir="-1" speed="18.76" pos="1085.01" reason="keepRight" leaderGap="346.75" leaderSecureGap="0.00" leaderSpeed="34.23" followerGap="80.01" followerSecureGap="0.00" followerSpeed="0.00" origLeaderGap="26.54" origLeaderSecureGap="10.13" origLeaderSpeed="20.91"/>
    <change id="main0.10" type="t0" time="68.00" from="beg2_0" to="beg2_1" dir="1" speed="8.37" pos="977.98" reason="strategic|urgent" leaderGap="16.58" leaderSecureGap="3.78" leaderSpeed="10.98" followerGap="7.95" followerSecureGap="0.00" followerSpeed="1.55" origLeaderGap="17.02" origLeaderSecureGap="12.24" origLeaderSpeed="0.00"/>
    <change id="main0.11" type="t0" time="71.00" from="beg2_0" to="beg2_1" dir="1" speed="2.53" pos="964.46" reason="strategic|urgent" leaderGap="12.32" leaderSecureGap="0.00" leaderSpeed="7.24" followerGap="3.48" followerSecureGap="0.00" followerSpeed="0.00" origLeaderGap="30.54" origLeaderSecureGap="2.53" origLeaderSpeed="0.00"/>
    <change id="main0.2" type="t0" time="72.00" from="beg2_1" to="beg2_0" dir="-1" speed="32.12" pos="1428.26" reason="keepRight" leaderGap="140.45" leaderSecureGap="14.97" leaderSpeed="34.57" followerGap="241.02" followerSecureGap="0.00" followerSpeed="27.41" origLeaderGap="140.55" origLeaderSecureGap="0.00" origLeaderSpeed="38.02"/>
    <change id="main0.3" type="t0" time="72.00" from="beg2_1" to="beg2_0" dir="-1" speed="33.01" pos="1302.33" reason="keepRight" leaderGap="120.93" leaderSecureGap="39.23" leaderSpeed="32.12" followerGap="115.09" followerSecureGap="0.00" followerSpeed="27.41" origLeaderGap="75.53" origLeaderSecureGap="36.72" origLeaderSpeed="32.48"/>
    <change id="main0.12" type="t0" time="76.00" from="beg2_0" to="beg2_1" dir="1" speed="5.33" pos="963.33" reason="strategic|urgent" leaderGap="12.65" leaderSecureGap="2.62" leaderSpeed="8.04" followerGap="5.83" followerSecureGap="0.00" followerSpeed="0.37" origLeaderGap="31.67" origLeaderSecureGap="6.16" origLeaderSpeed="0.00"/>
    <change id="main0.13" type="t0" time="79.00" from="beg2_0" to="beg2_1" dir="1" speed="7.37" pos="967.41" reason="strategic|urgent" leaderGap="18.26" leaderSecureGap="1.36" leaderSpeed="11.19" followerGap="4.61" followerSecureGap="0.41" followerSpeed="3.27" origLeaderGap="27.59" origLeaderSecureGap="10.24" origLeaderSpeed="0.00"/>
    <change id="main0.14" type="t0" time="81.00" from="beg2_0" to="beg2_1" dir="1" speed="2.42" pos="959.01" reason="strategic|urgent" leaderGap="4.56" leaderSecureGap="0.00" leaderSpeed="6.39" followerGap="6.07" followerSecureGap="0.00" followerSpeed="0.00" origLeaderGap="35.99" origLeaderSecureGap="0.47" origLeaderSpeed="0.00"/>
    <change id="main1.71" type="t0" time="82.00" from="beg2_1" to="beg2_0" dir="-1" speed="30.75" pos="323.41" reason="keepRight" leaderGap="44.55" leaderSecureGap="24.85" leaderSpeed="31.70" followerGap="49.43" followerSecureGap="38.11" followerSpeed="31.77" origLeaderGap="37.52" origLeaderSecureGap="23.76" origLeaderSpeed="31.86"/>
    <change id="main0.11" type="t0" time="83.00" from="beg2_1" to="beg2_0" dir="-1" speed="22.79" pos="1120.95" reason="keepRight" leaderGap="407.13" leaderSecureGap="0.00" leaderSpeed="33.42" followerGap="115.95" followerSecureGap="0.00" followerSpeed="0.00" origLeaderGap="88.23" origLeaderSecureGap="0.00" origLeaderSpeed="31.16"/>
    <change id="main0.17" type="t0" time="84.00" from="beg2_0" to="beg2_1" dir="1" speed="3.50" pos="961.88" reason="strategic|urgent" leaderGap="10.23" leaderSecureGap="0.00" leaderSpeed="8.40" followerGap="6.81" followerSecureGap="0.00" followerSpeed="0.42" origLeaderGap="33.12" origLeaderSecureGap="2.73" origLeaderSpeed="0.00"/>
    <change id="main0.18" type="t0" time="86.00" from="beg2_0" to="beg2_1" dir="1" speed="6.30" pos="964.09" reason="strategic|urgent" leaderGap="6.22" leaderSecureGap="2.70" leaderSpeed="7.79" followerGap="6.59" followerSecureGap="0.21" followerSpeed="2.01" origLeaderGap="30.91" origLeaderSecureGap="5.98" origLeaderSpeed="0.00"/>
    <change id="main0.19" type="t0" time="89.00" from="beg2_0" to="beg2_1" dir="1" speed="3.96" pos="971.58" reason="strategic|urgent" leaderGap="7.45" leaderSecureGap="0.00" leaderSpeed="8.70" followerGap="6.45" followerSecureGap="0.00" followerSpeed="1.69" origLeaderGap="23.42" origLeaderSecureGap="0.21" origLeaderSpeed="0.00"/>
    <change id="main0.20" type="t0" time="92.00" from="beg2_0" to="beg2_1" dir="1" speed="7.19" pos="980.75" reason="strategic|urgent" leaderGap="11.79" leaderSecureGap="1.68" leaderSpeed="10.85" followerGap="7.83" followerSecureGap="0.10" followerSpeed="2.78" origLeaderGap="14.25" origLeaderSecureGap="9.87" origLeaderSpeed="0.00"/>
    <change id="main0.12" type="t0" time="94.00" from="beg2_1" to="beg2_0" dir="-1" speed="33.51" pos="1365.07" reason="keepRight" leaderGap="94.79" leaderSecureGap="32.11" leaderSpeed="33.71" followerGap="360.07" followerSecureGap="0.00" followerSpeed="0.00" origLeaderGap="63.61" origLeaderSecureGap="16.46" origLeaderSpeed="35.94"/>
    <change id="main0.22" type="t0" time="94.00" from="beg2_0" to="beg2_1" dir="1" speed="1.00" pos="969.80" reason="strategic|urgent" leaderGap="5.39" leaderSecureGap="0.00" leaderSpeed="7.36" followerGap="4.96" followerSecureGap="0.00" followerSpeed="1.03" origLeaderGap="25.20" origLeaderSecureGap="0.00" origLeaderSpeed="0.00"/>
    <change id="main0.14" type="t0" time="96.00" from="beg2_1" to="beg2_0" dir="-1" speed="29.87" pos="1231.39" reason="keepRight" leaderGap="195.35" leaderSecureGap="5.57" leaderSpeed="33.58" followerGap="226.40" followerSecureGap="0.00" followerSpeed="0.00" origLeaderGap="42.49" origLeaderSecureGap="7.09" origLeaderSpeed="33.36"/>
    <change id="main0.23" type="t0" time="97.00" from="beg2_0" to="beg2_1" dir="1" speed="0.00" pos="959.98" reason="strategic|urgent" leaderGap="3.61" leaderSecureGap="0.00" leaderSpeed="4.09" followerGap="2.97" followerSecureGap="0.00" followerSpeed="0.00" origLeaderGap="35.02" origLeaderSecureGap="0.00" origLeaderSpeed="0.00"/>
    <change id="main0.19" type="t0" time="101.00" from="beg2_1" to="beg2_0" dir="-1" speed="26.78" pos="1177.73" reason="keepRight" leaderGap="217.05" leaderSecureGap="0.00" leaderSpeed="34.59" followerGap="172.73" followerSecureGap="0.00" followerSpeed="0.00" origLeaderGap="36.30" origLeaderSecureGap="11.50" origLeaderSpeed="29.37"/>
    <change id="main0.24" type="t0" time="101.00" from="beg2_0" to="beg2_1" dir="1" speed="0.00" pos="952.41" reason="strategic|urgent" leaderGap="3.62" leaderSecureGap="0.00" leaderSpeed="4.55" followerGap="2.89" followerSecureGap="0.00" followerSpeed="0.00" origLeaderGap="42.59" origLeaderSecureGap="0.00" origLeaderSpeed="0.00"/>
    <change id="main0.27" type="t0" time="106.00" from="beg2_0" to="beg2_1" dir="1" speed="7.29" pos="960.91" reason="strategic|urgent" leaderGap="11.36" leaderSecureGap="5.42" leaderSpeed="9.08" followerGap="6.15" followerSecureGap="0.00" followerSpeed="2.14" origLeaderGap="34.09" origLeaderSecureGap="10.07" origLeaderSpeed="0.00"/>
    <change id="main1.15" type="t0" time="109.00" from="beg2_1" to="beg2_0" dir="-1" speed="35.37" pos="2692.63" reason="keepRight" leaderGap="139.16" leaderSecureGap="45.34" leaderSpeed="33.94" followerGap="62.21" followerSecureGap="9.72" followerSpeed="32.16" origLeaderGap="None" origLeaderSecureGap="None" origLeaderSpeed="None"/>
    <change id="main0.8" type="t0" time="109.00" from="beg2_1" to="beg2_0" dir="-1" speed="34.75" pos="2279.37" reason="keepRight" leaderGap="103.67" leaderSecureGap="44.32" leaderSpeed="33.39" followerGap="309.09" followerSecureGap="22.67" followerSpeed="33.24" origLeaderGap="48.64" origLeaderSecureGap="42.09" origLeaderSpeed="33.71"/>
    <change id="main0.23" type="t0" time="110.00" from="beg2_1" to="beg2_0" dir="-1" speed="22.87" pos="1107.94" reason="keepRight" leaderGap="356.64" leaderSecureGap="0.00" leaderSpeed="33.25" followerGap="102.94" followerSecureGap="0.00" followerSpeed="0.00" origLeaderGap="78.45" origLeaderSecureGap="0.00" origLeaderSpeed="27.52"/>
    <change id="main0.29" type="t0" time="111.00" from="beg2_0" to="beg2_1" dir="1" speed="5.41" pos="956.98" reason="strategic|urgent" leaderGap="29.23" leaderSecureGap="0.00" leaderSpeed="12.58" followerGap="7.10" followerSecureGap="0.00" followerSpeed="0.41" origLeaderGap="38.02" origLeaderSecureGap="6.32" origLeaderSpeed="0.00"/>
    <change id="main0.107" type="t0" time="111.00" from="beg2_0" to="beg2_1" dir="1" speed="32.27" pos="71.69" reason="speedGain" leaderGap="44.32" leaderSecureGap="4.92" leaderSpeed="31.57" followerGap="None" followerSecureGap="None" followerSpeed="None" origLeaderGap="40.00" origLeaderSecureGap="11.47" origLeaderSpeed="30.49"/>
    <change id="main1.17" type="t0" time="113.00" from="beg2_1" to="beg2_0" dir="-1" speed="34.51" pos="2550.78" reason="keepRight" leaderGap="115.06" leaderSecureGap="41.37" leaderSpeed="33.53" followerGap="26.47" followerSecureGap="20.67" followerSpeed="32.78" origLeaderGap="92.59" origLeaderSecureGap="31.35" origLeaderSpeed="34.96"/>
    <change id="main0.31" type="t0" time="114.00" from="beg2_0" to="beg2_1" dir="1" speed="8.27" pos="962.03" reason="strategic|urgent" leaderGap="17.35" leaderSecureGap="3.56" leaderSpeed="10.99" followerGap="6.50" followerSecureGap="0.00" followerSpeed="3.69" origLeaderGap="32.97" origLeaderSecureGap="12.05" origLeaderSpeed="0.00"/>
    <change id="main1.22" type="t0" time="115.00" from="beg2_1" to="beg2_0" dir="-1" speed="35.03" pos="1357.07" reason="keepRight" leaderGap="274.77" leaderSecureGap="48.69" leaderSpeed="33.07" followerGap="99.71" followerSecureGap="20.34" followerSpeed="33.19" origLeaderGap="58.28" origLeaderSecureGap="16.60" origLeaderSpeed="37.45"/>
    <change id="main0.32" type="t0" time="115.00" from="beg2_0" to="beg2_1" dir="1" speed="3.62" pos="947.56" reason="strategic|urgent" leaderGap="3.75" leaderSecureGap="0.39" leaderSpeed="5.79" followerGap="3.39" followerSecureGap="0.00" followerSpeed="0.00" origLeaderGap="47.43" origLeaderSecureGap="1.68" origLeaderSpeed="0.00"/>
    <change id="main1.19" type="t0" time="117.00" from="beg2_1" to="beg2_0" dir="-1" speed="35.55" pos="2260.76" reason="keepRight" leaderGap="289.02" leaderSecureGap="40.49" leaderSpeed="34.84" followerGap="22.73" followerSecureGap="13.28" followerSpeed="32.77" origLeaderGap="195.32" origLeaderSecureGap="35.14" origLeaderSpeed="35.61"/>
    <change id="main1.23" type="t0" time="117.00" from="beg2_1" to="beg2_0" dir="-1" speed="32.67" pos="1259.73" reason="keepRight" leaderGap="54.81" leaderSecureGap="26.50" leaderSpeed="33.55" followerGap="254.73" followerSecureGap="0.00" followerSpeed="0.00" origLeaderGap="228.92" origLeaderSecureGap="2.51" origLeaderSpeed="36.85"/>
    <change id="main0.33" type="t0" time="118.00" from="beg2_0" to="beg2_1" dir="1" speed="10.47" pos="964.11" reason="strategic|urgent" leaderGap="18.08" leaderSecureGap="6.16" leaderSpeed="12.63" followerGap="3.18" followerSecureGap="0.00" followerSpeed="3.82" origLeaderGap="30.89" origLeaderSecureGap="17.92" origLeaderSpeed="0.00"/>
    <change id="main0.35" type="t0" time="121.00" from="beg2_0" to="beg2_1" dir="1" speed="5.38" pos="969.24" reason="strategic|urgent" leaderGap="3.19" leaderSecureGap="0.00" leaderSpeed="9.33" followerGap="8.32" followerSecureGap="3.44" followerSpeed="4.32" origLeaderGap="25.76" origLeaderSecureGap="1.75" origLeaderSpeed="0.00"/>
    <change id="main1.24" type="t0" time="122.00" from="beg2_1" to="beg2_0" dir="-1" speed="31.50" pos="1240.48" reason="keepRight" leaderGap="180.20" leaderSecureGap="24.04" leaderSpeed="32.56" followerGap="235.48" followerSecureGap="0.00" followerSpeed="0.00" origLeaderGap="77.40" origLeaderSecureGap="9.99" origLeaderSpeed="34.57"/>
    <change id="main0.36" type="t0" time="124.00" from="beg2_0" to="beg2_1" dir="1" speed="3.13" pos="960.74" reason="strategic|urgent" leaderGap="6.25" leaderSecureGap="0.00" leaderSpeed="6.22" followerGap="7.09" followerSecureGap="2.32" followerSpeed="2.32" origLeaderGap="34.26" origLeaderSecureGap="0.85" origLeaderSpeed="0.00"/>
    <change id="main0.24" type="t0" time="127.00" from="beg2_1" to="beg2_0" dir="-1" speed="32.99" pos="1537.55" reason="keepRight" leaderGap="48.04" leaderSecureGap="30.74" leaderSpeed="33.32" followerGap="127.67" followerSecureGap="28.88" followerSpeed="32.48" origLeaderGap="320.13" origLeaderSecureGap="7.19" origLeaderSpeed="36.60"/>
    <change id="main0.37" type="t0" time="127.00" from="beg2_0" to="beg2_1" dir="1" speed="3.22" pos="965.04" reason="strategic|urgent" leaderGap="8.74" leaderSecureGap="0.00" leaderSpeed="8.11" followerGap="6.24" followerSecureGap="0.00" followerSpeed="0.00" origLeaderGap="29.96" origLeaderSecureGap="0.84" origLeaderSpeed="0.00"/>
    <change id="main0.33" type="t0" time="129.00" from="beg2_1" to="beg2_0" dir="-1" speed="28.72" pos="1182.34" reason="keepRight" leaderGap="283.17" leaderSecureGap="0.00" leaderSpeed="33.24" followerGap="177.35" followerSecureGap="0.00" followerSpeed="0.00" origLeaderGap="68.42" origLeaderSecureGap="0.00" origLeaderSpeed="33.94"/>
    <change id="main0.40" type="t0" time="129.00" from="beg2_0" to="beg2_1" dir="1" speed="5.57" pos="965.78" reason="strategic|urgent" leaderGap="6.99" leaderSecureGap="1.60" leaderSpeed="7.35" followerGap="5.21" followerSecureGap="0.72" followerSpeed="1.78" origLeaderGap="29.21" origLeaderSecureGap="4.44" origLeaderSpeed="0.00"/>
    <change id="main1.18" type="t0" time="131.00" from="beg2_1" to="beg2_0" dir="-1" speed="35.37" pos="2959.49" reason="keepRight" leaderGap="None" leaderSecureGap="None" leaderSpeed="None" followerGap="190.34" followerSecureGap="39.97" followerSpeed="35.95" origLeaderGap="None" origLeaderSecureGap="None" origLeaderSpeed="None"/>
    <change id="main0.41" type="t0" time="132.00" from="beg2_0" to="beg2_1" dir="1" speed="5.78" pos="972.78" reason="strategic|urgent" leaderGap="10.65" leaderSecureGap="1.87" leaderSpeed="9.35" followerGap="6.06" followerSecureGap="0.00" followerSpeed="0.34" origLeaderGap="22.22" origLeaderSecureGap="7.06" origLeaderSpeed="0.00"/>
    <change id="main0.22" type="t0" time="133.00" from="beg2_1" to="beg2_0" dir="-1" speed="36.36" pos="2083.22" reason="keepRight" leaderGap="153.43" leaderSecureGap="57.13" leaderSpeed="33.44" followerGap="86.01" followerSecureGap="29.13" followerSpeed="35.50" origLeaderGap="74.52" origLeaderSecureGap="52.42" origLeaderSpeed="34.12"/>
    <change id="main0.32" type="t0" time="134.00" from="beg2_1" to="beg2_0" dir="-1" speed="33.20" pos="1288.01" reason="keepRight" leaderGap="54.10" leaderSecureGap="30.60" leaderSpeed="33.58" followerGap="283.01" followerSecureGap="0.00" followerSpeed="0.00" origLeaderGap="141.14" origLeaderSecureGap="16.18" origLeaderSpeed="35.64"/>
    <change id="main0.42" type="t0" time="134.00" from="beg2_0" to="beg2_1" dir="1" speed="6.57" pos="975.23" reason="strategic|urgent" leaderGap="9.87" leaderSecureGap="0.00" leaderSpeed="9.68" followerGap="5.25" followerSecureGap="0.85" followerSpeed="2.93" origLeaderGap="19.77" origLeaderSecureGap="2.59" origLeaderSpeed="0.00"/>
    <change id="main0.44" type="t0" time="137.00" from="beg2_0" to="beg2_1" dir="1" speed="7.26" pos="987.51" reason="strategic|urgent" leaderGap="11.93" leaderSecureGap="0.37" leaderSpeed="11.58" followerGap="6.73" followerSecureGap="0.00" followerSpeed="2.77" origLeaderGap="7.49" origLeaderSecureGap="10.02" origLeaderSpeed="0.00"/>
    <change id="main0.45" type="t0" time="139.00" from="beg2_0" to="beg2_1" dir="1" speed="0.00" pos="975.56" reason="strategic|urgent" leaderGap="7.75" leaderSecureGap="0.00" leaderSpeed="7.44" followerGap="5.24" followerSecureGap="0.31" followerSpeed="0.31" origLeaderGap="19.43" origLeaderSecureGap="0.00" origLeaderSpeed="0.00"/>
    <change id="main0.37" type="t0" time="140.00" from="beg2_1" to="beg2_0" dir="-1" speed="27.86" pos="1183.35" reason="keepRight" leaderGap="297.00" leaderSecureGap="0.00" leaderSpeed="32.63" followerGap="178.36" followerSecureGap="0.00" followerSpeed="0.00" origLeaderGap="81.72" origLeaderSecureGap="0.00" origLeaderSpeed="34.27"/>
    <change id="main0.46" type="t0" time="143.00" from="beg2_0" to="beg2_1" dir="1" speed="1.07" pos="968.16" reason="strategic|urgent" leaderGap="5.40" leaderSecureGap="0.31" leaderSpeed="5.26" followerGap="4.99" followerSecureGap="0.17" followerSpeed="0.17" origLeaderGap="26.84" origLeaderSecureGap="1.07" origLeaderSpeed="0.00"/>
    <change id="main0.41" type="t0" time="145.00" from="beg2_1" to="beg2_0" dir="-1" speed="29.21" pos="1214.32" reason="keepRight" leaderGap="130.93" leaderSecureGap="0.00" leaderSpeed="35.62" followerGap="209.33" followerSecureGap="0.00" followerSpeed="0.00" origLeaderGap="83.50" origLeaderSecureGap="0.00" origLeaderSpeed="35.88"/>
    <change id="main0.48" type="t0" time="147.00" from="beg2_0" to="beg2_1" dir="1" speed="6.01" pos="974.16" reason="strategic|urgent" leaderGap="11.56" leaderSecureGap="3.57" leaderSpeed="8.45" followerGap="3.88" followerSecureGap="0.23" followerSpeed="1.74" origLeaderGap="20.84" origLeaderSecureGap="7.52" origLeaderSpeed="0.00"/>
    <change id="main0.50" type="t0" time="149.00" from="beg2_0" to="beg2_1" dir="1" speed="0.68" pos="962.83" reason="strategic|urgent" leaderGap="4.34" leaderSecureGap="0.00" leaderSpeed="4.51" followerGap="2.56" followerSecureGap="0.00" followerSpeed="0.00" origLeaderGap="32.17" origLeaderSecureGap="0.00" origLeaderSpeed="0.00"/>
    <change id="main1.27" type="t0" time="151.00" from="beg2_1" to="beg2_0" dir="-1" speed="29.28" pos="1228.02" reason="keepRight" leaderGap="184.50" leaderSecureGap="0.00" leaderSpeed="34.23" followerGap="223.03" followerSecureGap="0.00" followerSpeed="0.00" origLeaderGap="44.22" origLeaderSecureGap="8.81" origLeaderSpeed="32.52"/>
    <change id="main1.25" type="t0" time="152.00" from="beg2_1" to="beg2_0" dir="-1" speed="35.42" pos="2073.39" reason="keepRight" leaderGap="144.31" leaderSecureGap="56.95" leaderSpeed="32.34" followerGap="111.81" followerSecureGap="20.79" followerSpeed="33.59" origLeaderGap="53.16" origLeaderSecureGap="37.06" origLeaderSpeed="35.18"/>
    <change id="main0.45" type="t0" time="153.00" from="beg2_1" to="beg2_0" dir="-1" speed="28.25" pos="1180.00" reason="keepRight" leaderGap="106.75" leaderSecureGap="0.00" leaderSpeed="32.95" followerGap="175.00" followerSecureGap="0.00" followerSpeed="0.00" origLeaderGap="162.32" origLeaderSecureGap="0.00" origLeaderSpeed="36.05"/>
    <change id="main0.51" type="t0" time="153.00" from="beg2_0" to="beg2_1" dir="1" speed="9.79" pos="986.20" reason="strategic|urgent" leaderGap="17.86" leaderSecureGap="4.39" leaderSpeed="12.49" followerGap="6.75" followerSecureGap="0.00" followerSpeed="5.17" origLeaderGap="8.80" origLeaderSecureGap="15.88" origLeaderSpeed="0.00"/>
    <change id="main0.53" type="t0" time="154.00" from="beg2_0" to="beg2_1" dir="1" speed="4.80" pos="971.81" reason="strategic|urgent" leaderGap="4.68" leaderSecureGap="0.00" leaderSpeed="7.03" followerGap="5.46" followerSecureGap="0.00" followerSpeed="0.00" origLeaderGap="23.19" origLeaderSecureGap="2.16" origLeaderSpeed="0.00"/>
    <change id="main0.54" type="t0" time="156.00" from="beg2_0" to="beg2_1" dir="1" speed="6.16" pos="974.58" reason="strategic|urgent" leaderGap="3.56" leaderSecureGap="0.06" leaderSpeed="6.92" followerGap="6.79" followerSecureGap="0.00" followerSpeed="1.44" origLeaderGap="20.42" origLeaderSecureGap="2.48" origLeaderSpeed="0.00"/>
    <change id="main0.46" type="t0" time="159.00" from="beg2_1" to="beg2_0" dir="-1" speed="32.32" pos="1250.55" reason="keepRight" leaderGap="122.29" leaderSecureGap="20.49" leaderSpeed="34.01" followerGap="245.55" followerSecureGap="0.00" followerSpeed="0.00" origLeaderGap="74.96" origLeaderSecureGap="0.00" origLeaderSpeed="37.16"/>
    <change id="main0.55" type="t0" time="159.00" from="beg2_0" to="beg2_1" dir="1" speed="2.96" pos="981.23" reason="strategic|urgent" leaderGap="4.34" leaderSecureGap="0.00" leaderSpeed="7.73" followerGap="6.11" followerSecureGap="0.94" followerSpeed="2.27" origLeaderGap="13.77" origLeaderSecureGap="0.00" origLeaderSpeed="0.00"/>
    <change id="main0.156" type="t0" time="161.00" from="beg2_0" to="beg2_1" dir="1" speed="27.77" pos="101.99" reason="speedGain" leaderGap="41.25" leaderSecureGap="30.54" leaderSpeed="23.66" followerGap="None" followerSecureGap="None" followerSpeed="None" origLeaderGap="75.23" origLeaderSecureGap="43.15" origLeaderSpeed="20.80"/>
    <change id="main0.57" type="t0" time="162.00" from="beg2_0" to="beg2_1" dir="1" speed="0.00" pos="973.46" reason="strategic|urgent" leaderGap="3.72" leaderSecureGap="0.00" leaderSpeed="5.18" followerGap="5.10" followerSecureGap="0.75" followerSpeed="0.75" origLeaderGap="21.54" origLeaderSecureGap="0.00" origLeaderSpeed="0.00"/>
    <change id="main0.42" type="t0" time="163.00" from="beg2_1" to="beg2_0" dir="-1" speed="34.47" pos="1773.25" reason="keepRight" leaderGap="57.98" leaderSecureGap="30.57" leaderSpeed="35.03" followerGap="142.03" followerSecureGap="31.25" followerSpeed="34.07" origLeaderGap="157.64" origLeaderSecureGap="31.29" origLeaderSpeed="34.93"/>
    <change id="main0.51" type="t0" time="165.00" from="beg2_1" to="beg2_0" dir="-1" speed="32.63" pos="1258.91" reason="keepRight" leaderGap="190.14" leaderSecureGap="23.88" leaderSpeed="33.88" followerGap="253.91" followerSecureGap="0.00" followerSpeed="0.00" origLeaderGap="60.27" origLeaderSecureGap="14.47" origLeaderSpeed="35.23"/>
    <change id="main0.54" type="t0" time="166.00" from="beg2_1" to="beg2_0" dir="-1" speed="20.95" pos="1097.86" reason="keepRight" leaderGap="190.92" leaderSecureGap="0.00" leaderSpeed="34.87" followerGap="92.86" followerSecureGap="0.00" followerSpeed="0.00" origLeaderGap="59.20" origLeaderSecureGap="0.00" origLeaderSpeed="27.79"/>
    <change id="main0.59" type="t0" time="167.00" from="beg2_0" to="beg2_1" dir="1" speed="7.25" pos="983.88" reason="strategic|urgent" leaderGap="14.30" leaderSecureGap="2.67" leaderSpeed="10.42" followerGap="6.36" followerSecureGap="0.00" followerSpeed="1.76" origLeaderGap="11.11" origLeaderSecureGap="10.01" origLeaderSpeed="0.00"/>
    <change id="main0.48" type="t0" time="169.00" from="beg2_1" to="beg2_0" dir="-1" speed="33.45" pos="1533.46" reason="keepRight" leaderGap="51.36" leaderSecureGap="26.19" leaderSpeed="34.49" followerGap="131.48" followerSecureGap="39.11" followerSpeed="34.16" origLeaderGap="160.53" origLeaderSecureGap="13.98" origLeaderSpeed="36.20"/>
    <change id="main1.154" type="t0" time="169.00" from="beg2_1" to="beg2_0" dir="-1" speed="5.87" pos="244.70" reason="speedGain" leaderGap="28.06" leaderSecureGap="7.24" leaderSpeed="4.38" followerGap="23.59" followerSecureGap="12.17" followerSpeed="13.51" origLeaderGap="6.38" origLeaderSecureGap="7.24" origLeaderSpeed="3.10"/>
    <change id="main0.60" type="t0" time="170.00" from="beg2_0" to="beg2_1" dir="1" speed="1.83" pos="972.01" reason="strategic|urgent" leaderGap="13.36" leaderSecureGap="0.00" leaderSpeed="7.94" followerGap="3.85" followerSecureGap="0.00" followerSpeed="0.00" origLeaderGap="22.99" origLeaderSecureGap="1.83" origLeaderSpeed="0.00"/>
    <change id="main0.164" type="t0" time="170.00" from="beg2_0" to="beg2_1" dir="1" speed="23.16" pos="121.00" reason="speedGain" leaderGap="37.13" leaderSecureGap="25.52" leaderSpeed="18.62" followerGap="None" followerSecureGap="None" followerSpeed="None" origLeaderGap="48.58" origLeaderSecureGap="32.67" origLeaderSpeed="16.44"/>
    <change id="main1.26" type="t0" time="174.00" from="beg2_1" to="beg2_0" dir="-1" speed="35.50" pos="2521.81" reason="keepRight" leaderGap="86.54" leaderSecureGap="47.24" leaderSpeed="33.82" followerGap="149.91" followerSecureGap="27.06" followerSpeed="34.44" origLeaderGap="43.74" origLeaderSecureGap="40.46" origLeaderSpeed="34.79"/>
    <change id="main0.50" type="t0" time="175.00" from="beg2_1" to="beg2_0" dir="-1" speed="34.04" pos="1522.25" reason="keepRight" leaderGap="76.73" leaderSecureGap="29.87" leaderSpeed="34.64" followerGap="147.69" followerSecureGap="38.52" followerSpeed="34.60" origLeaderGap="153.42" origLeaderSecureGap="18.74" origLeaderSpeed="36.20"/>
    <change id="main0.55" type="t0" time="176.00" from="beg2_1" to="beg2_0" dir="-1" speed="33.28" pos="1305.09" reason="keepRight" leaderGap="93.55" leaderSecureGap="27.68" leaderSpeed="34.08" followerGap="300.09" followerSecureGap="0.00" followerSpeed="0.00" origLeaderGap="197.80" origLeaderSecureGap="12.25" origLeaderSpeed="36.25"/>