<?xml version="1.0" encoding="UTF-8"?>

<!-- generated on Fri May 25 23:18:52 2018 by Eclipse SUMO Version eb2c231
This data file and the accompanying materials
are made available under the terms of the Eclipse Public License v2.0
which accompanies this distribution, and is available at
http://www.eclipse.org/legal/epl-v20.html
SPDX-License-Identifier: EPL-2.0
<configuration xmlns:xsi="http://www.w3.org/2001/XMLSchema-instance" xsi:noNamespaceSchemaLocation="http://sumo.dlr.de/xsd/sumoConfiguration.xsd">

    <input>
        <net-file value="motorway.net.xml"/>
        <route-files value="input_routes.rou.xml"/>
        <additional-files value="input_additional.add.xml"/>
    </input>

    <output>
        <write-license value="true"/>
        <lanechange-output value="lanechanges.xml"/>
    </output>

    <processing>
        <max-depart-delay value="1"/>
    </processing>

    <report>
        <xml-validation value="never"/>
        <no-step-log value="true"/>
    </report>

</configuration>
-->

<lanechanges>
    <change id="main0.1" type="t0" time="11.00" from="beg2_0" to="beg2_1" dir="1" speed="35.55" pos="298.04" reason="speedGain" leaderGap="None" leaderSecureGap="None" followerGap="None" followerSecureGap="None" origLeaderGap="49.09" origLeaderSecureGap="42.94"/>
    <change id="main0.5" type="t0" time="13.00" from="beg2_0" to="beg2_1" dir="1" speed="34.51" pos="219.62" reason="speedGain" leaderGap="64.45" leaderSecureGap="39.70" followerGap="None" followerSecureGap="None" origLeaderGap="49.33" origLeaderSecureGap="45.38"/>
    <change id="main1.11" type="t0" time="34.00" from="beg2_1" to="beg2_0" dir="-1" speed="32.17" pos="1017.61" reason="keepRight" leaderGap="None" leaderSecureGap="None" followerGap="12.63" followerSecureGap="0.00" origLeaderGap="122.20" origLeaderSecureGap="2.02"/>
    <change id="main0.1" type="t0" time="47.00" from="beg2_1" to="beg2_0" dir="-1" speed="36.87" pos="1624.45" reason="keepRight" leaderGap="None" leaderSecureGap="None" followerGap="181.90" followerSecureGap="0.00" origLeaderGap="None" origLeaderSecureGap="None"/>
    <change id="main0.0" type="t0" time="53.00" from="beg2_0" to="beg2_1" dir="1" speed="0.00" pos="992.49" reason="strategic|urgent" leaderGap="9.28" leaderSecureGap="0.00" followerGap="4.74" followerSecureGap="0.00" origLeaderGap="2.50" origLeaderSecureGap="0.00"/>
    <change id="main1.17" type="t0" time="55.00" from="beg2_1" to="beg2_0" dir="-1" speed="32.63" pos="1234.46" reason="keepRight" leaderGap="456.82" leaderSecureGap="38.50" followerGap="229.47" followerSecureGap="0.00" origLeaderGap="91.98" origLeaderSecureGap="12.40"/>
    <change id="main1.15" type="t0" time="56.00" from="beg2_1" to="beg2_0" dir="-1" speed="35.57" pos="1423.73" reason="keepRight" leaderGap="300.24" leaderSecureGap="55.69" followerGap="149.32" followerSecureGap="30.61" origLeaderGap="103.78" origLeaderSecureGap="7.09"/>
    <change id="main1.16" type="t0" time="58.00" from="beg2_1" to="beg2_0" dir="-1" speed="35.08" pos="1437.74" reason="keepRight" leaderGap="51.93" leaderSecureGap="31.40" followerGap="92.98" followerSecureGap="36.18" origLeaderGap="167.45" origLeaderSecureGap="8.24"/>
    <change id="main1.19" type="t0" time="59.00" from="beg2_1" to="beg2_0" dir="-1" speed="17.87" pos="1089.18" reason="keepRight" leaderGap="280.18" leaderSecureGap="0.00" followerGap="84.19" followerSecureGap="0.00" origLeaderGap="163.62" origLeaderSecureGap="0.00"/>
    <change id="main0.2" type="t0" time="65.00" from="beg2_0" to="beg2_1" dir="1" speed="0.00" pos="992.49" reason="strategic|urgent" leaderGap="8.18" leaderSecureGap="0.00" followerGap="5.10" followerSecureGap="0.73" origLeaderGap="2.50" origLeaderSecureGap="0.00"/>
    <change id="main0.0" type="t0" time="72.00" from="beg2_1" to="beg2_0" dir="-1" speed="34.82" pos="1356.86" reason="keepRight" leaderGap="122.25" leaderSecureGap="24.12" followerGap="351.87" followerSecureGap="0.00" origLeaderGap="374.38" origLeaderSecureGap="18.52"/>
    <change id="main1.12" type="t0" time="77.00" from="beg2_1" to="beg2_0" dir="-1" speed="34.24" pos="2430.27" reason="keepRight" leaderGap="294.32" leaderSecureGap="17.96" followerGap="21.49" followerSecureGap="14.21" origLeaderGap="None" origLeaderSecureGap="None"/>
    <change id="main1.20" type="t0" time="77.00" from="beg2_1" to="beg2_0" dir="-1" speed="31.44" pos="1255.70" reason="keepRight" leaderGap="266.75" leaderSecureGap="13.71" followerGap="250.71" followerSecureGap="0.00" origLeaderGap="658.96" origLeaderSecureGap="0.00"/>
    <change id="main0.3" type="t0" time="78.00" from="beg2_0" to="beg2_1" dir="1" speed="0.00" pos="992.49" reason="strategic|urgent" leaderGap="9.54" leaderSecureGap="0.00" followerGap="4.15" followerSecureGap="0.00" origLeaderGap="2.50" origLeaderSecureGap="0.00"/>
    <change id="main0.2" type="t0" time="79.00" from="beg2_1" to="beg2_0" dir="-1" speed="17.13" pos="1068.63" reason="keepRight" leaderGap="251.42" leaderSecureGap="0.00" followerGap="63.64" followerSecureGap="0.00" origLeaderGap="921.12" origLeaderSecureGap="0.00"/>
    <change id="main0.7" type="t0" time="83.00" from="beg2_0" to="beg2_1" dir="1" speed="1.89" pos="992.46" reason="strategic|urgent" leaderGap="5.39" leaderSecureGap="0.00" followerGap="6.48" followerSecureGap="2.45" origLeaderGap="2.53" origLeaderSecureGap="1.89"/>
    <change id="main0.8" type="t0" time="86.00" from="beg2_0" to="beg2_1" dir="1" speed="4.06" pos="988.97" reason="strategic|urgent" leaderGap="17.25" leaderSecureGap="0.25" followerGap="2.99" followerSecureGap="0.00" origLeaderGap="6.02" origLeaderSecureGap="4.06"/>
    <change id="main0.7" type="t0" time="90.00" from="beg2_1" to="beg2_0" dir="-1" speed="15.84" pos="1063.04" reason="keepRight" leaderGap="306.64" leaderSecureGap="0.00" followerGap="58.05" followerSecureGap="0.00" origLeaderGap="25.38" origLeaderSecureGap="8.74"/>
    <change id="main0.10" type="t0" time="91.00" from="beg2_0" to="beg2_1" dir="1" speed="0.00" pos="973.37" reason="strategic|urgent" leaderGap="6.90" leaderSecureGap="0.00" followerGap="2.80" followerSecureGap="0.00" origLeaderGap="21.62" origLeaderSecureGap="0.00"/>
    <change id="main0.3" type="t0" time="93.00" from="beg2_1" to="beg2_0" dir="-1" speed="27.46" pos="1202.54" reason="keepRight" leaderGap="262.70" leaderSecureGap="0.97" followerGap="75.35" followerSecureGap="0.00" origLeaderGap="125.99" origLeaderSecureGap="0.00"/>
    <change id="main0.11" type="t0" time="96.00" from="beg2_0" to="beg2_1" dir="1" speed="2.72" pos="971.67" reason="strategic|urgent" leaderGap="4.47" leaderSecureGap="0.10" followerGap="5.75" followerSecureGap="2.39" origLeaderGap="23.32" origLeaderSecureGap="2.72"/>
    <change id="main1.23" type="t0" time="99.00" from="beg2_1" to="beg2_0" dir="-1" speed="25.27" pos="1147.65" reason="keepRight" leaderGap="143.26" leaderSecureGap="0.00" followerGap="142.66" followerSecureGap="0.00" origLeaderGap="48.90" origLeaderSecureGap="18.55"/>
    <change id="main0.12" type="t0" time="99.00" from="beg2_0" to="beg2_1" dir="1" speed="5.51" pos="972.66" reason="strategic|urgent" leaderGap="12.82" leaderSecureGap="2.75" followerGap="5.71" followerSecureGap="0.03" origLeaderGap="22.33" origLeaderSecureGap="6.52"/>
    <change id="main0.13" type="t0" time="102.00" from="beg2_0" to="beg2_1" dir="1" speed="0.00" pos="953.31" reason="strategic|urgent" leaderGap="4.08" leaderSecureGap="0.00" followerGap="2.93" followerSecureGap="0.00" origLeaderGap="41.68" origLeaderSecureGap="0.00"/>
    <change id="main0.14" type="t0" time="107.00" from="beg2_0" to="beg2_1" dir="1" speed="0.00" pos="945.81" reason="strategic|urgent" leaderGap="7.84" leaderSecureGap="0.00" followerGap="2.83" followerSecureGap="0.00" origLeaderGap="49.18" origLeaderSecureGap="0.00"/>
    <change id="main0.11" type="t0" time="108.00" from="beg2_1" to="beg2_0" dir="-1" speed="25.93" pos="1152.85" reason="keepRight" leaderGap="279.14" leaderSecureGap="0.00" followerGap="147.86" followerSecureGap="0.00" origLeaderGap="51.37" origLeaderSecureGap="5.44"/>
    <change id="main0.8" type="t0" time="111.00" from="beg2_1" to="beg2_0" dir="-1" speed="34.14" pos="1603.92" reason="keepRight" leaderGap="95.00" leaderSecureGap="31.40" followerGap="62.27" followerSecureGap="21.60" origLeaderGap="165.21" origLeaderSecureGap="22.98"/>
    <change id="main0.17" type="t0" time="111.00" from="beg2_0" to="beg2_1" dir="1" speed="5.62" pos="949.90" reason="strategic|urgent" leaderGap="12.03" leaderSecureGap="3.30" followerGap="4.79" followerSecureGap="0.00" origLeaderGap="45.09" origLeaderSecureGap="6.74"/>
    <change id="main0.12" type="t0" time="114.00" from="beg2_1" to="beg2_0" dir="-1" speed="32.71" pos="1287.33" reason="keepRight" leaderGap="49.52" leaderSecureGap="27.65" followerGap="282.34" followerSecureGap="0.00" origLeaderGap="122.36" origLeaderSecureGap="11.20"/>
    <change id="main0.19" type="t0" time="114.00" from="beg2_0" to="beg2_1" dir="1" speed="0.00" pos="931.55" reason="strategic|urgent" leaderGap="4.22" leaderSecureGap="0.00" followerGap="2.66" followerSecureGap="0.00" origLeaderGap="63.44" origLeaderSecureGap="0.00"/>
    <change id="main1.24" type="t0" time="115.00" from="beg2_1" to="beg2_0" dir="-1" speed="32.82" pos="1611.35" reason="keepRight" leaderGap="53.61" leaderSecureGap="27.49" followerGap="230.94" followerSecureGap="38.72" origLeaderGap="298.68" origLeaderSecureGap="18.95"/>
    <change id="main0.20" type="t0" time="118.00" from="beg2_0" to="beg2_1" dir="1" speed="4.85" pos="933.84" reason="strategic|urgent" leaderGap="11.19" leaderSecureGap="2.29" followerGap="3.83" followerSecureGap="0.09" origLeaderGap="61.15" origLeaderSecureGap="5.21"/>
    <change id="main1.27" type="t0" time="121.00" from="beg2_1" to="beg2_0" dir="-1" speed="33.59" pos="1399.85" reason="keepRight" leaderGap="113.96" leaderSecureGap="38.63" followerGap="394.85" followerSecureGap="0.00" origLeaderGap="54.39" origLeaderSecureGap="17.17"/>
    <change id="main0.14" type="t0" time="121.00" from="beg2_1" to="beg2_0" dir="-1" speed="27.19" pos="1150.77" reason="keepRight" leaderGap="244.08" leaderSecureGap="0.00" followerGap="145.77" followerSecureGap="0.00" origLeaderGap="72.77" origLeaderSecureGap="0.00"/>
    <change id="main0.21" type="t0" time="122.00" from="beg2_0" to="beg2_1" dir="1" speed="0.00" pos="916.97" reason="strategic|urgent" leaderGap="5.21" leaderSecureGap="0.00" followerGap="2.69" followerSecureGap="0.00" origLeaderGap="78.02" origLeaderSecureGap="0.00"/>
    <change id="main0.23" type="t0" time="126.00" from="beg2_0" to="beg2_1" dir="1" speed="9.07" pos="933.09" reason="strategic|urgent" leaderGap="24.30" leaderSecureGap="4.43" followerGap="10.26" followerSecureGap="0.00" origLeaderGap="61.90" origLeaderSecureGap="13.71"/>
    <change id="main0.24" type="t0" time="130.00" from="beg2_0" to="beg2_1" dir="1" speed="11.16" pos="940.92" reason="strategic|urgent" leaderGap="43.55" leaderSecureGap="0.00" followerGap="5.53" followerSecureGap="0.00" origLeaderGap="54.07" origLeaderSecureGap="19.97"/>
    <change id="main1.31" type="t0" time="133.00" from="beg2_1" to="beg2_0" dir="-1" speed="34.16" pos="1355.33" reason="keepRight" leaderGap="190.71" leaderSecureGap="38.33" followerGap="350.34" followerSecureGap="0.00" origLeaderGap="80.34" origLeaderSecureGap="12.71"/>
    <change id="main0.19" type="t0" time="133.00" from="beg2_1" to="beg2_0" dir="-1" speed="34.12" pos="1286.91" reason="keepRight" leaderGap="63.42" leaderSecureGap="33.77" followerGap="281.92" followerSecureGap="0.00" origLeaderGap="148.77" origLeaderSecureGap="12.32"/>
    <change id="main0.26" type="t0" time="133.00" from="beg2_0" to="beg2_1" dir="1" speed="14.49" pos="954.96" reason="strategic|urgent" leaderGap="25.99" leaderSecureGap="6.78" followerGap="4.13" followerSecureGap="0.00" origLeaderGap="40.03" origLeaderSecureGap="30.95"/>
    <change id="main0.13" type="t0" time="136.00" from="beg2_1" to="beg2_0" dir="-1" speed="34.75" pos="1800.08" reason="keepRight" leaderGap="98.24" leaderSecureGap="42.30" followerGap="142.41" followerSecureGap="30.43" origLeaderGap="183.58" origLeaderSecureGap="33.05"/>
    <change id="main1.32" type="t0" time="136.00" from="beg2_1" to="beg2_0" dir="-1" speed="33.94" pos="1246.07" reason="keepRight" leaderGap="136.25" leaderSecureGap="39.92" followerGap="241.08" followerSecureGap="0.00" origLeaderGap="74.40" origLeaderSecureGap="33.58"/>
    <change id="main0.27" type="t0" time="137.00" from="beg2_0" to="beg2_1" dir="1" speed="10.82" pos="983.90" reason="strategic|urgent" leaderGap="40.17" leaderSecureGap="0.00" followerGap="6.62" followerSecureGap="0.00" origLeaderGap="11.09" origLeaderSecureGap="18.96"/>
    <change id="main1.22" type="t0" time="140.00" from="beg2_1" to="beg2_0" dir="-1" speed="34.73" pos="2797.22" reason="keepRight" leaderGap="188.23" leaderSecureGap="48.63" followerGap="30.22" followerSecureGap="22.47" origLeaderGap="None" origLeaderSecureGap="None"/>
    <change id="main0.23" type="t0" time="141.00" from="beg2_1" to="beg2_0" dir="-1" speed="33.89" pos="1296.51" reason="keepRight" leaderGap="113.79" leaderSecureGap="34.69" followerGap="291.52" followerSecureGap="0.00" origLeaderGap="70.30" origLeaderSecureGap="20.33"/>
    <change id="main0.29" type="t0" time="141.00" from="beg2_0" to="beg2_1" dir="1" speed="1.49" pos="992.47" reason="strategic|urgent" leaderGap="3.91" leaderSecureGap="0.00" followerGap="8.32" followerSecureGap="4.45" origLeaderGap="2.52" origLeaderSecureGap="1.49"/>
    <change id="main0.24" type="t0" time="143.00" from="beg2_1" to="beg2_0" dir="-1" speed="32.45" pos="1255.65" reason="keepRight" leaderGap="102.87" leaderSecureGap="21.90" followerGap="250.66" followerSecureGap="0.00" origLeaderGap="182.94" origLeaderSecureGap="7.72"/>
    <change id="main0.31" type="t0" time="149.00" from="beg2_0" to="beg2_1" dir="1" speed="0.00" pos="992.49" reason="strategic|urgent" leaderGap="9.86" leaderSecureGap="0.00" followerGap="2.60" followerSecureGap="0.00" origLeaderGap="2.50" origLeaderSecureGap="0.00"/>
    <change id="main0.29" type="t0" time="150.00" from="beg2_1" to="beg2_0" dir="-1" speed="13.28" pos="1049.86" reason="keepRight" leaderGap="430.25" leaderSecureGap="0.00" followerGap="44.87" followerSecureGap="0.00" origLeaderGap="115.83" origLeaderSecureGap="0.00"/>
    <change id="main0.21" type="t0" time="156.00" from="beg2_1" to="beg2_0" dir="-1" speed="35.81" pos="1367.73" reason="keepRight" leaderGap="308.17" leaderSecureGap="62.08" followerGap="196.98" followerSecureGap="0.00" origLeaderGap="134.91" origLeaderSecureGap="39.69"/>
    <change id="main0.27" type="t0" time="157.00" from="beg2_1" to="beg2_0" dir="-1" speed="35.41" pos="1543.05" reason="keepRight" leaderGap="166.10" leaderSecureGap="50.55" followerGap="133.87" followerSecureGap="44.16" origLeaderGap="155.87" origLeaderSecureGap="18.52"/>
    <change id="main0.158" type="t0" time="161.00" from="beg2_0" to="beg2_1" dir="1" speed="34.28" pos="43.97" reason="speedGain" leaderGap="111.05" leaderSecureGap="104.10" followerGap="None" followerSecureGap="None" origLeaderGap="75.41" origLeaderSecureGap="90.13"/>
    <change id="main0.32" type="t0" time="163.00" from="beg2_0" to="beg2_1" dir="1" speed="0.00" pos="992.49" reason="strategic|urgent" leaderGap="9.17" leaderSecureGap="0.00" followerGap="4.22" followerSecureGap="0.00" origLeaderGap="2.50" origLeaderSecureGap="0.00"/>
    <change id="main1.36" type="t0" time="168.00" from="beg2_1" to="beg2_0" dir="-1" speed="16.29" pos="1070.26" reason="keepRight" leaderGap="482.81" leaderSecureGap="0.00" followerGap="65.27" followerSecureGap="0.00" origLeaderGap="259.94" origLeaderSecureGap="0.00"/>
    <change id="main0.33" type="t0" time="168.00" from="beg2_0" to="beg2_1" dir="1" speed="0.01" pos="992.41" reason="strategic|urgent" leaderGap="10.39" leaderSecureGap="0.00" followerGap="6.69" followerSecureGap="0.00" origLeaderGap="2.58" origLeaderSecureGap="0.01"/>
    <change id="main0.35" type="t0" time="174.00" from="beg2_0" to="beg2_1" dir="1" speed="0.00" pos="992.49" reason="strategic|urgent" leaderGap="5.19" leaderSecureGap="0.00" followerGap="2.60" followerSecureGap="0.00" origLeaderGap="2.50" origLeaderSecureGap="0.00"/>
    <change id="main0.31" type="t0" time="175.00" from="beg2_1" to="beg2_0" dir="-1" speed="35.36" pos="1580.46" reason="keepRight" leaderGap="216.11" leaderSecureGap="37.48" followerGap="332.60" followerSecureGap="0.00" origLeaderGap="143.56" origLeaderSecureGap="46.29"/>
    <change id="main1.35" type="t0" time="176.00" from="beg2_1" to="beg2_0" dir="-1" speed="34.60" pos="1763.63" reason="keepRight" leaderGap="68.31" leaderSecureGap="29.20" followerGap="143.41" followerSecureGap="35.80" origLeaderGap="641.51" origLeaderSecureGap="11.05"/>
    <change id="main0.33" type="t0" time="179.00" from="beg2_1" to="beg2_0" dir="-1" speed="15.08" pos="1059.00" reason="keepRight" leaderGap="316.39" leaderSecureGap="0.00" followerGap="54.01" followerSecureGap="0.00" origLeaderGap="158.54" origLeaderSecureGap="0.00"/>
    <change id="main0.37" type="t0" time="180.00" from="beg2_0" to="beg2_1" dir="1" speed="0.03" pos="992.48" reason="strategic|urgent" leaderGap="42.20" leaderSecureGap="0.00" followerGap="2.51" followerSecureGap="0.00" origLeaderGap="2.51" origLeaderSecureGap="0.03"/>
    <change id="main0.32" type="t0" time="183.00" from="beg2_1" to="beg2_0" dir="-1" speed="33.54" pos="1408.37" reason="keepRight" leaderGap="106.02" leaderSecureGap="23.95" followerGap="263.55" followerSecureGap="0.00" origLeaderGap="1257.21" origLeaderSecureGap="2.85"/>
    <change id="main0.38" type="t0" time="190.00" from="beg2_0" to="beg2_1" dir="1" speed="0.00" pos="992.49" reason="strategic|urgent" leaderGap="10.01" leaderSecureGap="0.00" followerGap="4.15" followerSecureGap="0.00" origLeaderGap="2.50" origLeaderSecureGap="0.00"/>
    <change id="main0.37" type="t0" time="193.00" from="beg2_1" to="beg2_0" dir="-1" speed="22.42" pos="1121.13" reason="keepRight" leaderGap="328.60" leaderSecureGap="0.00" followerGap="116.14" followerSecureGap="0.00" origLeaderGap="252.52" origLeaderSecureGap="0.00"/>
    <change id="main0.40" type="t0" time="201.00" from="beg2_0" to="beg2_1" dir="1" speed="0.00" pos="992.49" reason="strategic|urgent" leaderGap="8.91" leaderSecureGap="0.00" followerGap="4.21" followerSecureGap="0.00" origLeaderGap="2.50" origLeaderSecureGap="0.00"/>
    <change id="main1.39" type="t0" time="207.00" from="beg2_1" to="beg2_0" dir="-1" speed="35.50" pos="1414.40" reason="keepRight" leaderGap="153.00" leaderSecureGap="41.22" followerGap="409.41" followerSecureGap="0.00" origLeaderGap="445.87" origLeaderSecureGap="38.33"/>
    <change id="main1.41" type="t0" time="207.00" from="beg2_1" to="beg2_0" dir="-1" speed="18.11" pos="1088.59" reason="keepRight" leaderGap="320.80" leaderSecureGap="0.00" followerGap="83.60" followerSecureGap="0.00" origLeaderGap="226.63" origLeaderSecureGap="0.00"/>
    <change id="main1.41" type="t0" time="209.00" from="beg2_0" to="beg2_1" dir="1" speed="22.38" pos="1130.90" reason="speedGain" leaderGap="253.94" leaderSecureGap="0.00" followerGap="119.33" followerSecureGap="0.00" origLeaderGap="349.78" origLeaderSecureGap="0.00"/>
    <change id="main0.38" type="t0" time="211.00" from="beg2_1" to="beg2_0" dir="-1" speed="34.90" pos="1460.23" reason="keepRight" leaderGap="91.80" leaderSecureGap="29.51" followerGap="455.24" followerSecureGap="0.00" origLeaderGap="539.40" origLeaderSecureGap="35.88"/>
    <change id="main0.41" type="t0" time="212.00" from="beg2_0" to="beg2_1" dir="1" speed="0.00" pos="992.49" reason="strategic|urgent" leaderGap="7.91" leaderSecureGap="0.00" followerGap="5.10" followerSecureGap="0.30" origLeaderGap="2.50" origLeaderSecureGap="0.00"/>
    <change id="main0.40" type="t0" time="214.00" from="beg2_1" to="beg2_0" dir="-1" speed="15.96" pos="1070.05" reason="keepRight" leaderGap="489.89" leaderSecureGap="0.00" followerGap="65.06" followerSecureGap="0.00" origLeaderGap="197.70" origLeaderSecureGap="0.00"/>
    <change id="main0.206" type="t0" time="218.00" from="beg2_0" to="beg2_1" dir="1" speed="0.34" pos="149.06" reason="speedGain" leaderGap="5.58" leaderSecureGap="0.00" followerGap="None" followerSecureGap="None" origLeaderGap="3.47" origLeaderSecureGap="0.34"/>
    <change id="main0.42" type="t0" time="225.00" from="beg2_0" to="beg2_1" dir="1" speed="0.00" pos="992.49" reason="strategic|urgent" leaderGap="7.78" leaderSecureGap="0.00" followerGap="4.90" followerSecureGap="0.00" origLeaderGap="2.50" origLeaderSecureGap="0.00"/>
    <change id="main1.38" type="t0" time="228.00" from="beg2_1" to="beg2_0" dir="-1" speed="35.61" pos="2953.50" reason="keepRight" leaderGap="None" leaderSecureGap="None" followerGap="42.16" followerSecureGap="12.85" origLeaderGap="None" origLeaderSecureGap="None"/>
    <change id="main0.44" type="t0" time="229.00" from="beg2_0" to="beg2_1" dir="1" speed="2.29" pos="992.05" reason="strategic|urgent" leaderGap="16.48" leaderSecureGap="0.00" followerGap="2.63" followerSecureGap="0.00" origLeaderGap="2.94" origLeaderSecureGap="2.29"/>
    <change id="main1.43" type="t0" time="230.00" from="beg2_1" to="beg2_0" dir="-1" speed="17.26" pos="1070.92" reason="keepRight" leaderGap="481.56" leaderSecureGap="0.00" followerGap="65.93" followerSecureGap="0.00" origLeaderGap="275.26" origLeaderSecureGap="0.00"/>
    <change id="main0.41" type="t0" time="234.00" from="beg2_1" to="beg2_0" dir="-1" speed="35.14" pos="1490.00" reason="keepRight" leaderGap="204.18" leaderSecureGap="37.90" followerGap="324.49" followerSecureGap="0.00" origLeaderGap="104.31" origLeaderSecureGap="35.34"/>
    <change id="main1.41" type="t0" time="235.00" from="beg2_1" to="beg2_0" dir="-1" speed="37.48" pos="2063.25" reason="keepRight" leaderGap="234.48" leaderSecureGap="57.92" followerGap="324.09" followerSecureGap="15.96" origLeaderGap="773.72" origLeaderSecureGap="56.45"/>
    <change id="main1.42" type="t0" time="235.00" from="beg2_1" to="beg2_0" dir="-1" speed="35.96" pos="1635.27" reason="keepRight" leaderGap="93.88" leaderSecureGap="42.88" followerGap="106.06" followerSecureGap="21.94" origLeaderGap="1201.69" origLeaderSecureGap="42.83"/>
    <change id="main0.45" type="t0" time="238.00" from="beg2_0" to="beg2_1" dir="1" speed="0.00" pos="992.49" reason="strategic|urgent" leaderGap="9.02" leaderSecureGap="0.00" followerGap="2.85" followerSecureGap="0.00" origLeaderGap="2.50" origLeaderSecureGap="0.00"/>
    <change id="main1.45" type="t0" time="240.00" from="beg2_1" to="beg2_0" dir="-1" speed="11.41" pos="1027.49" reason="keepRight" leaderGap="319.18" leaderSecureGap="0.00" followerGap="22.50" followerSecureGap="0.00" origLeaderGap="69.16" origLeaderSecureGap="0.00"/>
    <change id="main0.46" type="t0" time="242.00" from="beg2_0" to="beg2_1" dir="1" speed="2.24" pos="992.45" reason="strategic|urgent" leaderGap="16.81" leaderSecureGap="0.00" followerGap="2.58" followerSecureGap="0.00" origLeaderGap="2.54" origLeaderSecureGap="2.24"/>
    <change id="main0.42" type="t0" time="247.00" from="beg2_1" to="beg2_0" dir="-1" speed="34.34" pos="1478.75" reason="keepRight" leaderGap="115.52" leaderSecureGap="28.83" followerGap="318.20" followerSecureGap="0.00" origLeaderGap="None" origLeaderSecureGap="None"/>
    <change id="main0.44" type="t0" time="252.00" from="beg2_1" to="beg2_0" dir="-1" speed="36.25" pos="1469.02" reason="keepRight" leaderGap="178.17" leaderSecureGap="47.39" followerGap="164.41" followerSecureGap="3.74" origLeaderGap="None" origLeaderSecureGap="None"/>
    <change id="main0.48" type="t0" time="254.00" from="beg2_0" to="beg2_1" dir="1" speed="0.00" pos="992.49" reason="strategic|urgent" leaderGap="7.32" leaderSecureGap="0.00" followerGap="5.10" followerSecureGap="1.12" origLeaderGap="2.50" origLeaderSecureGap="0.00"/>
    <change id="main1.47" type="t0" time="259.00" from="beg2_1" to="beg2_0" dir="-1" speed="16.91" pos="1070.76" reason="keepRight" leaderGap="451.73" leaderSecureGap="0.00" followerGap="65.77" followerSecureGap="0.00" origLeaderGap="268.73" origLeaderSecureGap="0.00"/>
    <change id="main1.226" type="t0" time="260.00" from="beg2_1" to="beg2_0" dir="-1" speed="5.09" pos="187.22" reason="speedGain" leaderGap="12.05" leaderSecureGap="0.00" followerGap="38.50" followerSecureGap="31.76" origLeaderGap="7.92" origLeaderSecureGap="5.55"/>
    <change id="main1.47" type="t0" time="264.00" from="beg2_0" to="beg2_1" dir="1" speed="27.79" pos="1188.06" reason="speedGain" leaderGap="320.44" leaderSecureGap="0.00" followerGap="158.20" followerSecureGap="0.00" origLeaderGap="496.54" origLeaderSecureGap="0.45"/>
    <change id="main0.50" type="t0" time="265.00" from="beg2_0" to="beg2_1" dir="1" speed="0.00" pos="992.49" reason="strategic|urgent" leaderGap="2.77" leaderSecureGap="0.00" followerGap="2.90" followerSecureGap="0.00" origLeaderGap="2.50" origLeaderSecureGap="0.00"/>
    <change id="main0.48" type="t0" time="269.00" from="beg2_1" to="beg2_0" dir="-1" speed="19.84" pos="1107.14" reason="keepRight" leaderGap="738.20" leaderSecureGap="0.00" followerGap="102.15" followerSecureGap="0.00" origLeaderGap="242.02" origLeaderSecureGap="0.00"/>
    <change id="main0.51" type="t0" time="270.00" from="beg2_0" to="beg2_1" dir="1" speed="0.00" pos="984.99" reason="strategic|urgent" leaderGap="7.53" leaderSecureGap="0.00" followerGap="2.86" followerSecureGap="0.00" origLeaderGap="10.00" origLeaderSecureGap="0.00"/>
    <change id="main0.46" type="t0" time="275.00" from="beg2_1" to="beg2_0" dir="-1" speed="34.31" pos="1886.03" reason="keepRight" leaderGap="153.34" leaderSecureGap="51.99" followerGap="612.14" followerSecureGap="17.22" origLeaderGap="72.11" origLeaderSecureGap="40.63"/>
    <change id="main0.53" type="t0" time="275.00" from="beg2_0" to="beg2_1" dir="1" speed="5.61" pos="990.20" reason="strategic|urgent" leaderGap="17.42" leaderSecureGap="1.96" followerGap="6.19" followerSecureGap="0.16" origLeaderGap="4.79" origLeaderSecureGap="6.71"/>
    <change id="main1.47" type="t0" time="280.00" from="beg2_1" to="beg2_0" dir="-1" speed="36.16" pos="1744.43" reason="keepRight" leaderGap="306.20" leaderSecureGap="50.92" followerGap="301.16" followerSecureGap="14.97" origLeaderGap="380.84" origLeaderSecureGap="58.36"/>
    <change id="main0.51" type="t0" time="280.00" from="beg2_1" to="beg2_0" dir="-1" speed="20.14" pos="1091.20" reason="keepRight" leaderGap="342.07" leaderSecureGap="0.00" followerGap="86.20" followerSecureGap="0.00" origLeaderGap="50.67" origLeaderSecureGap="5.96"/>
    <change id="main0.55" type="t0" time="280.00" from="beg2_0" to="beg2_1" dir="1" speed="3.74" pos="975.84" reason="strategic|urgent" leaderGap="17.42" leaderSecureGap="0.00" followerGap="2.60" followerSecureGap="0.00" origLeaderGap="19.15" origLeaderSecureGap="3.74"/>
    <change id="main0.56" type="t0" time="283.00" from="beg2_0" to="beg2_1" dir="1" speed="6.24" pos="979.17" reason="strategic|urgent" leaderGap="15.33" leaderSecureGap="1.85" followerGap="3.16" followerSecureGap="0.00" origLeaderGap="15.82" origLeaderSecureGap="7.98"/>
    <change id="main0.50" type="t0" time="285.00" from="beg2_1" to="beg2_0" dir="-1" speed="34.54" pos="1352.06" reason="keepRight" leaderGap="249.03" leaderSecureGap="42.03" followerGap="127.20" followerSecureGap="0.00" origLeaderGap="159.58" origLeaderSecureGap="8.38"/>
    <change id="main0.57" type="t0" time="287.00" from="beg2_0" to="beg2_1" dir="1" speed="6.83" pos="988.88" reason="strategic|urgent" leaderGap="28.54" leaderSecureGap="0.00" followerGap="6.51" followerSecureGap="0.00" origLeaderGap="6.11" origLeaderSecureGap="9.17"/>
    <change id="main1.51" type="t0" time="291.00" from="beg2_1" to="beg2_0" dir="-1" speed="29.51" pos="1227.50" reason="keepRight" leaderGap="192.03" leaderSecureGap="0.00" followerGap="222.51" followerSecureGap="0.00" origLeaderGap="39.32" origLeaderSecureGap="16.96"/>
    <change id="main0.55" type="t0" time="296.00" from="beg2_1" to="beg2_0" dir="-1" speed="32.49" pos="1316.90" reason="keepRight" leaderGap="70.97" leaderSecureGap="21.39" followerGap="311.90" followerSecureGap="0.00" origLeaderGap="122.12" origLeaderSecureGap="20.05"/>
    <change id="main0.57" type="t0" time="296.00" from="beg2_1" to="beg2_0" dir="-1" speed="22.62" pos="1127.34" reason="keepRight" leaderGap="184.55" leaderSecureGap="0.00" followerGap="122.35" followerSecureGap="0.00" origLeaderGap="103.91" origLeaderSecureGap="0.00"/>
    <change id="main1.50" type="t0" time="298.00" from="beg2_1" to="beg2_0" dir="-1" speed="34.60" pos="1513.51" reason="keepRight" leaderGap="146.74" leaderSecureGap="37.67" followerGap="48.39" followerSecureGap="29.02" origLeaderGap="75.92" origLeaderSecureGap="25.17"/>
    <change id="main0.59" type="t0" time="298.00" from="beg2_0" to="beg2_1" dir="1" speed="0.00" pos="992.49" reason="strategic|urgent" leaderGap="7.39" leaderSecureGap="0.00" followerGap="5.10" followerSecureGap="0.66" origLeaderGap="2.50" origLeaderSecureGap="0.00"/>
    <change id="main0.61" type="t0" time="303.00" from="beg2_0" to="beg2_1" dir="1" speed="2.24" pos="989.67" reason="strategic|urgent" leaderGap="7.13" leaderSecureGap="0.00" followerGap="5.33" followerSecureGap="2.12" origLeaderGap="5.32" origLeaderSecureGap="2.24"/>
    <change id="main0.45" type="t0" time="305.00" from="beg2_1" to="beg2_0" dir="-1" speed="33.16" pos="2962.55" reason="keepRight" leaderGap="None" leaderSecureGap="None" followerGap="52.88" followerSecureGap="43.46" origLeaderGap="None" origLeaderSecureGap="None"/>
    <change id="main0.59" type="t0" time="306.00" from="beg2_1" to="beg2_0" dir="-1" speed="14.90" pos="1058.22" reason="keepRight" leaderGap="372.84" leaderSecureGap="0.00" followerGap="53.23" followerSecureGap="0.00" origLeaderGap="70.90" origLeaderSecureGap="0.00"/>