<?xml version="1.0" encoding="UTF-8"?>

<!-- generated on Wed May 30 17:19:53 2018 by Eclipse SUMO Version ddd1bf7
This data file and the accompanying materials
are made available under the terms of the Eclipse Public License v2.0
which accompanies this distribution, and is available at
http://www.eclipse.org/legal/epl-v20.html
SPDX-License-Identifier: EPL-2.0
<configuration xmlns:xsi="http://www.w3.org/2001/XMLSchema-instance" xsi:noNamespaceSchemaLocation="http://sumo.dlr.de/xsd/sumoConfiguration.xsd">

    <input>
        <net-file value="motorway.net.xml"/>
        <route-files value="input_routes.rou.xml"/>
        <additional-files value="input_additional.add.xml"/>
    </input>

    <output>
        <write-license value="true"/>
        <lanechange-output value="lanechanges.xml"/>
    </output>

    <processing>
        <max-depart-delay value="1"/>
    </processing>

    <report>
        <xml-validation value="never"/>
        <no-step-log value="true"/>
    </report>

</configuration>
-->

<lanechanges>
    <change id="main0.1" type="t0" time="11.00" from="beg2_0" to="beg2_1" dir="1" speed="35.55" pos="298.04" reason="speedGain" leaderGap="None" leaderSecureGap="None" followerGap="None" followerSecureGap="None" origLeaderGap="49.09" origLeaderSecureGap="42.94"/>
    <change id="main0.5" type="t0" time="13.00" from="beg2_0" to="beg2_1" dir="1" speed="34.51" pos="219.62" reason="speedGain" leaderGap="64.45" leaderSecureGap="39.70" followerGap="None" followerSecureGap="None" origLeaderGap="49.33" origLeaderSecureGap="45.38"/>
    <change id="main1.11" type="t0" time="34.00" from="beg2_1" to="beg2_0" dir="-1" speed="32.17" pos="1017.61" reason="keepRight" leaderGap="None" leaderSecureGap="None" followerGap="12.63" followerSecureGap="0.00" origLeaderGap="122.20" origLeaderSecureGap="2.02"/>
    <change id="main0.1" type="t0" time="47.00" from="beg2_1" to="beg2_0" dir="-1" speed="36.87" pos="1624.45" reason="keepRight" leaderGap="None" leaderSecureGap="None" followerGap="181.90" followerSecureGap="0.00" origLeaderGap="None" origLeaderSecureGap="None"/>
    <change id="main0.0" type="t0" time="53.00" from="beg2_0" to="beg2_1" dir="1" speed="0.00" pos="992.49" reason="strategic|urgent" leaderGap="9.28" leaderSecureGap="0.00" followerGap="4.74" followerSecureGap="0.00" origLeaderGap="2.50" origLeaderSecureGap="0.00"/>
    <change id="main1.17" type="t0" time="55.00" from="beg2_1" to="beg2_0" dir="-1" speed="32.63" pos="1234.46" reason="keepRight" leaderGap="456.82" leaderSecureGap="38.50" followerGap="229.47" followerSecureGap="0.00" origLeaderGap="91.98" origLeaderSecureGap="12.40"/>
    <change id="main1.15" type="t0" time="56.00" from="beg2_1" to="beg2_0" dir="-1" speed="35.57" pos="1423.73" reason="keepRight" leaderGap="300.24" leaderSecureGap="55.69" followerGap="149.32" followerSecureGap="30.61" origLeaderGap="103.78" origLeaderSecureGap="7.09"/>
    <change id="main1.16" type="t0" time="58.00" from="beg2_1" to="beg2_0" dir="-1" speed="35.08" pos="1437.74" reason="keepRight" leaderGap="51.93" leaderSecureGap="31.40" followerGap="92.98" followerSecureGap="36.18" origLeaderGap="167.45" origLeaderSecureGap="8.24"/>
    <change id="main1.19" type="t0" time="59.00" from="beg2_1" to="beg2_0" dir="-1" speed="17.87" pos="1089.18" reason="keepRight" leaderGap="280.18" leaderSecureGap="0.00" followerGap="84.19" followerSecureGap="0.00" origLeaderGap="163.62" origLeaderSecureGap="0.00"/>
    <change id="main0.2" type="t0" time="59.00" from="beg2_0" to="beg2_1" dir="1" speed="0.09" pos="992.49" reason="strategic|urgent" leaderGap="17.04" leaderSecureGap="0.00" followerGap="3.11" followerSecureGap="0.00" origLeaderGap="2.50" origLeaderSecureGap="0.09"/>
    <change id="main0.3" type="t0" time="63.00" from="beg2_0" to="beg2_1" dir="1" speed="0.00" pos="984.41" reason="strategic|urgent" leaderGap="8.57" leaderSecureGap="0.00" followerGap="2.62" followerSecureGap="0.00" origLeaderGap="10.58" origLeaderSecureGap="0.00"/>
    <change id="main0.7" type="t0" time="68.00" from="beg2_0" to="beg2_1" dir="1" speed="5.88" pos="990.87" reason="strategic|urgent" leaderGap="19.55" leaderSecureGap="1.45" followerGap="4.50" followerSecureGap="0.00" origLeaderGap="4.12" origLeaderSecureGap="7.27"/>
    <change id="main0.2" type="t0" time="70.00" from="beg2_1" to="beg2_0" dir="-1" speed="22.21" pos="1125.15" reason="keepRight" leaderGap="278.65" leaderSecureGap="0.00" followerGap="120.16" followerSecureGap="0.00" origLeaderGap="105.55" origLeaderSecureGap="0.00"/>
    <change id="main0.0" type="t0" time="72.00" from="beg2_1" to="beg2_0" dir="-1" speed="34.05" pos="1356.23" reason="keepRight" leaderGap="119.14" leaderSecureGap="24.04" followerGap="175.48" followerSecureGap="0.00" origLeaderGap="375.76" origLeaderSecureGap="10.56"/>
    <change id="main0.8" type="t0" time="72.00" from="beg2_0" to="beg2_1" dir="1" speed="0.00" pos="973.02" reason="strategic|urgent" leaderGap="8.80" leaderSecureGap="0.00" followerGap="3.03" followerSecureGap="0.00" origLeaderGap="21.97" origLeaderSecureGap="0.00"/>
    <change id="main1.23" type="t0" time="75.00" from="beg2_1" to="beg2_0" dir="-1" speed="11.81" pos="1016.90" reason="keepRight" leaderGap="244.23" leaderSecureGap="0.00" followerGap="11.91" followerSecureGap="0.00" origLeaderGap="21.65" origLeaderSecureGap="1.64"/>
    <change id="main1.12" type="t0" time="77.00" from="beg2_1" to="beg2_0" dir="-1" speed="34.47" pos="2429.61" reason="keepRight" leaderGap="296.05" leaderSecureGap="12.93" followerGap="18.64" followerSecureGap="13.05" origLeaderGap="None" origLeaderSecureGap="None"/>
    <change id="main0.10" type="t0" time="77.00" from="beg2_0" to="beg2_1" dir="1" speed="4.64" pos="977.84" reason="strategic|urgent" leaderGap="22.49" leaderSecureGap="0.00" followerGap="2.98" followerSecureGap="0.38" origLeaderGap="17.15" origLeaderSecureGap="4.79"/>
    <change id="main0.3" type="t0" time="80.00" from="beg2_1" to="beg2_0" dir="-1" speed="31.53" pos="1267.27" reason="keepRight" leaderGap="156.34" leaderSecureGap="21.92" followerGap="154.30" followerSecureGap="0.00" origLeaderGap="105.09" origLeaderSecureGap="1.35"/>
    <change id="main0.11" type="t0" time="81.00" from="beg2_0" to="beg2_1" dir="1" speed="9.49" pos="985.49" reason="strategic|urgent" leaderGap="26.65" leaderSecureGap="2.35" followerGap="7.67" followerSecureGap="0.00" origLeaderGap="9.50" origLeaderSecureGap="14.96"/>
    <change id="main1.71" type="t0" time="83.00" from="beg2_1" to="beg2_0" dir="-1" speed="30.77" pos="337.23" reason="keepRight" leaderGap="63.36" leaderSecureGap="9.49" followerGap="32.31" followerSecureGap="27.20" origLeaderGap="44.90" origLeaderSecureGap="5.57"/>
    <change id="main0.12" type="t0" time="84.00" from="beg2_0" to="beg2_1" dir="1" speed="1.07" pos="974.70" reason="strategic|urgent" leaderGap="8.74" leaderSecureGap="0.00" followerGap="5.10" followerSecureGap="0.12" origLeaderGap="20.29" origLeaderSecureGap="1.07"/>
    <change id="main0.13" type="t0" time="88.00" from="beg2_0" to="beg2_1" dir="1" speed="7.46" pos="982.84" reason="strategic|urgent" leaderGap="15.21" leaderSecureGap="2.69" followerGap="8.44" followerSecureGap="0.00" origLeaderGap="12.15" origLeaderSecureGap="10.41"/>
    <change id="main1.24" type="t0" time="92.00" from="beg2_1" to="beg2_0" dir="-1" speed="24.00" pos="1120.49" reason="keepRight" leaderGap="352.16" leaderSecureGap="0.00" followerGap="115.50" followerSecureGap="0.00" origLeaderGap="100.00" origLeaderSecureGap="0.00"/>
    <change id="main0.14" type="t0" time="93.00" from="beg2_0" to="beg2_1" dir="1" speed="5.47" pos="975.46" reason="strategic|urgent" leaderGap="21.59" leaderSecureGap="0.00" followerGap="5.81" followerSecureGap="0.00" origLeaderGap="19.53" origLeaderSecureGap="6.44"/>
    <change id="main0.11" type="t0" time="94.00" from="beg2_1" to="beg2_0" dir="-1" speed="32.85" pos="1291.55" reason="keepRight" leaderGap="246.14" leaderSecureGap="35.08" followerGap="111.36" followerSecureGap="1.92" origLeaderGap="71.83" origLeaderSecureGap="13.11"/>
    <change id="main0.17" type="t0" time="97.00" from="beg2_0" to="beg2_1" dir="1" speed="0.00" pos="956.26" reason="strategic|urgent" leaderGap="8.65" leaderSecureGap="0.00" followerGap="3.39" followerSecureGap="0.00" origLeaderGap="38.73" origLeaderSecureGap="0.00"/>
    <change id="main0.12" type="t0" time="99.00" from="beg2_1" to="beg2_0" dir="-1" speed="30.82" pos="1236.70" reason="keepRight" leaderGap="95.45" leaderSecureGap="17.03" followerGap="231.71" followerSecureGap="0.00" origLeaderGap="304.55" origLeaderSecureGap="0.82"/>
    <change id="main0.19" type="t0" time="102.00" from="beg2_0" to="beg2_1" dir="1" speed="7.04" pos="966.73" reason="strategic|urgent" leaderGap="14.70" leaderSecureGap="3.12" followerGap="5.23" followerSecureGap="0.00" origLeaderGap="28.26" origLeaderSecureGap="9.59"/>
    <change id="main0.14" type="t0" time="103.00" from="beg2_1" to="beg2_0" dir="-1" speed="24.66" pos="1139.01" reason="keepRight" leaderGap="225.97" leaderSecureGap="0.00" followerGap="134.02" followerSecureGap="0.00" origLeaderGap="69.82" origLeaderSecureGap="0.00"/>
    <change id="main1.21" type="t0" time="105.00" from="beg2_1" to="beg2_0" dir="-1" speed="36.30" pos="2281.59" reason="keepRight" leaderGap="198.76" leaderSecureGap="48.35" followerGap="40.24" followerSecureGap="4.80" origLeaderGap="239.81" origLeaderSecureGap="32.87"/>
    <change id="main0.20" type="t0" time="105.00" from="beg2_0" to="beg2_1" dir="1" speed="4.54" pos="957.44" reason="strategic|urgent" leaderGap="12.17" leaderSecureGap="1.33" followerGap="5.68" followerSecureGap="0.00" origLeaderGap="37.56" origLeaderSecureGap="4.58"/>
    <change id="main0.21" type="t0" time="109.00" from="beg2_0" to="beg2_1" dir="1" speed="0.00" pos="939.16" reason="strategic|urgent" leaderGap="6.37" leaderSecureGap="0.00" followerGap="2.69" followerSecureGap="0.00" origLeaderGap="55.83" origLeaderSecureGap="0.00"/>
    <change id="main1.20" type="t0" time="112.00" from="beg2_1" to="beg2_0" dir="-1" speed="37.00" pos="2785.01" reason="keepRight" leaderGap="123.82" leaderSecureGap="48.48" followerGap="55.95" followerSecureGap="9.13" origLeaderGap="None" origLeaderSecureGap="None"/>
    <change id="main1.27" type="t0" time="112.00" from="beg2_1" to="beg2_0" dir="-1" speed="33.12" pos="1289.24" reason="keepRight" leaderGap="130.61" leaderSecureGap="28.47" followerGap="284.25" followerSecureGap="0.00" origLeaderGap="55.13" origLeaderSecureGap="13.20"/>
    <change id="main0.19" type="t0" time="114.00" from="beg2_1" to="beg2_0" dir="-1" speed="26.75" pos="1184.82" reason="keepRight" leaderGap="166.49" leaderSecureGap="0.00" followerGap="179.83" followerSecureGap="0.00" origLeaderGap="65.68" origLeaderSecureGap="0.00"/>
    <change id="main0.23" type="t0" time="114.00" from="beg2_0" to="beg2_1" dir="1" speed="6.31" pos="947.78" reason="strategic|urgent" leaderGap="15.93" leaderSecureGap="2.43" followerGap="5.57" followerSecureGap="0.00" origLeaderGap="47.21" origLeaderSecureGap="8.12"/>
    <change id="main0.24" type="t0" time="117.00" from="beg2_0" to="beg2_1" dir="1" speed="0.00" pos="928.05" reason="strategic|urgent" leaderGap="4.87" leaderSecureGap="0.00" followerGap="3.62" followerSecureGap="0.00" origLeaderGap="66.94" origLeaderSecureGap="0.00"/>
    <change id="main0.26" type="t0" time="122.00" from="beg2_0" to="beg2_1" dir="1" speed="5.03" pos="932.92" reason="strategic|urgent" leaderGap="21.31" leaderSecureGap="0.00" followerGap="3.20" followerSecureGap="0.33" origLeaderGap="62.07" origLeaderSecureGap="5.55"/>
    <change id="main0.27" type="t0" time="126.00" from="beg2_0" to="beg2_1" dir="1" speed="0.00" pos="916.27" reason="strategic|urgent" leaderGap="2.95" leaderSecureGap="0.00" followerGap="2.99" followerSecureGap="0.00" origLeaderGap="78.72" origLeaderSecureGap="0.00"/>
    <change id="main0.23" type="t0" time="127.00" from="beg2_1" to="beg2_0" dir="-1" speed="30.16" pos="1194.99" reason="keepRight" leaderGap="409.93" leaderSecureGap="10.47" followerGap="190.00" followerSecureGap="0.00" origLeaderGap="69.20" origLeaderSecureGap="0.00"/>
    <change id="main1.31" type="t0" time="128.00" from="beg2_1" to="beg2_0" dir="-1" speed="33.83" pos="1392.11" reason="keepRight" leaderGap="246.76" leaderSecureGap="32.88" followerGap="159.98" followerSecureGap="20.36" origLeaderGap="60.41" origLeaderSecureGap="10.71"/>
    <change id="main0.29" type="t0" time="131.00" from="beg2_0" to="beg2_1" dir="1" speed="5.65" pos="919.77" reason="strategic|urgent" leaderGap="11.90" leaderSecureGap="3.79" followerGap="3.93" followerSecureGap="0.05" origLeaderGap="75.22" origLeaderSecureGap="6.80"/>
    <change id="main0.20" type="t0" time="133.00" from="beg2_1" to="beg2_0" dir="-1" speed="34.27" pos="1710.85" reason="keepRight" leaderGap="95.45" leaderSecureGap="43.70" followerGap="142.61" followerSecureGap="35.87" origLeaderGap="79.67" origLeaderSecureGap="19.47"/>
    <change id="main0.24" type="t0" time="134.00" from="beg2_1" to="beg2_0" dir="-1" speed="32.26" pos="1225.79" reason="keepRight" leaderGap="197.69" leaderSecureGap="23.56" followerGap="220.80" followerSecureGap="0.00" origLeaderGap="94.33" origLeaderSecureGap="23.03"/>
    <change id="main0.31" type="t0" time="135.00" from="beg2_0" to="beg2_1" dir="1" speed="0.00" pos="902.04" reason="strategic|urgent" leaderGap="8.02" leaderSecureGap="0.00" followerGap="3.04" followerSecureGap="0.00" origLeaderGap="92.95" origLeaderSecureGap="0.00"/>
    <change id="main0.32" type="t0" time="139.00" from="beg2_0" to="beg2_1" dir="1" speed="4.03" pos="903.16" reason="strategic|urgent" leaderGap="14.95" leaderSecureGap="0.00" followerGap="3.69" followerSecureGap="0.00" origLeaderGap="91.83" origLeaderSecureGap="4.03"/>
    <change id="main0.10" type="t0" time="140.00" from="beg2_1" to="beg2_0" dir="-1" speed="35.08" pos="2980.48" reason="keepRight" leaderGap="None" leaderSecureGap="None" followerGap="149.60" followerSecureGap="19.97" origLeaderGap="None" origLeaderSecureGap="None"/>
    <change id="main0.33" type="t0" time="142.00" from="beg2_0" to="beg2_1" dir="1" speed="7.57" pos="908.51" reason="strategic|urgent" leaderGap="15.21" leaderSecureGap="2.70" followerGap="6.27" followerSecureGap="0.00" origLeaderGap="86.48" origLeaderSecureGap="10.65"/>
    <change id="main1.35" type="t0" time="143.00" from="beg2_1" to="beg2_0" dir="-1" speed="34.02" pos="1328.85" reason="keepRight" leaderGap="186.99" leaderSecureGap="41.94" followerGap="323.86" followerSecureGap="0.00" origLeaderGap="149.84" origLeaderSecureGap="13.91"/>
    <change id="main0.35" type="t0" time="145.00" from="beg2_0" to="beg2_1" dir="1" speed="4.26" pos="902.62" reason="strategic|urgent" leaderGap="8.20" leaderSecureGap="0.45" followerGap="4.72" followerSecureGap="0.00" origLeaderGap="92.37" origLeaderSecureGap="4.26"/>
    <change id="main0.37" type="t0" time="149.00" from="beg2_0" to="beg2_1" dir="1" speed="10.88" pos="915.02" reason="strategic|urgent" leaderGap="21.41" leaderSecureGap="8.04" followerGap="2.98" followerSecureGap="0.00" origLeaderGap="79.97" origLeaderSecureGap="19.13"/>
    <change id="main0.29" type="t0" time="150.00" from="beg2_1" to="beg2_0" dir="-1" speed="34.18" pos="1378.20" reason="keepRight" leaderGap="187.17" leaderSecureGap="31.17" followerGap="373.21" followerSecureGap="0.00" origLeaderGap="46.16" origLeaderSecureGap="27.57"/>
    <change id="main0.38" type="t0" time="151.00" from="beg2_0" to="beg2_1" dir="1" speed="3.73" pos="903.53" reason="strategic|urgent" leaderGap="12.56" leaderSecureGap="0.38" followerGap="4.39" followerSecureGap="0.95" origLeaderGap="91.46" origLeaderSecureGap="3.73"/>
    <change id="main0.40" type="t0" time="154.00" from="beg2_0" to="beg2_1" dir="1" speed="5.00" pos="910.12" reason="strategic|urgent" leaderGap="13.06" leaderSecureGap="0.00" followerGap="6.29" followerSecureGap="0.00" origLeaderGap="84.87" origLeaderSecureGap="5.49"/>
    <change id="main0.41" type="t0" time="156.00" from="beg2_0" to="beg2_1" dir="1" speed="5.76" pos="910.01" reason="strategic|urgent" leaderGap="11.28" leaderSecureGap="1.96" followerGap="4.99" followerSecureGap="0.00" origLeaderGap="84.98" origLeaderSecureGap="7.01"/>
    <change id="main0.31" type="t0" time="157.00" from="beg2_1" to="beg2_0" dir="-1" speed="34.99" pos="1370.44" reason="keepRight" leaderGap="245.44" leaderSecureGap="40.32" followerGap="365.45" followerSecureGap="0.00" origLeaderGap="99.36" origLeaderSecureGap="36.05"/>
    <change id="main0.32" type="t0" time="157.00" from="beg2_1" to="beg2_0" dir="-1" speed="32.94" pos="1300.69" reason="keepRight" leaderGap="64.76" leaderSecureGap="18.60" followerGap="295.70" followerSecureGap="0.00" origLeaderGap="169.12" origLeaderSecureGap="19.66"/>
    <change id="main0.42" type="t0" time="158.00" from="beg2_0" to="beg2_1" dir="1" speed="7.31" pos="911.81" reason="strategic|urgent" leaderGap="11.33" leaderSecureGap="3.47" followerGap="4.30" followerSecureGap="0.00" origLeaderGap="83.18" origLeaderSecureGap="10.12"/>
    <change id="main0.44" type="t0" time="161.00" from="beg2_0" to="beg2_1" dir="1" speed="10.57" pos="926.89" reason="strategic|urgent" leaderGap="13.98" leaderSecureGap="4.96" followerGap="13.55" followerSecureGap="0.00" origLeaderGap="68.10" origLeaderSecureGap="18.22"/>
    <change id="main0.45" type="t0" time="163.00" from="beg2_0" to="beg2_1" dir="1" speed="12.40" pos="933.29" reason="strategic|urgent" leaderGap="15.56" leaderSecureGap="7.91" followerGap="12.18" followerSecureGap="0.00" origLeaderGap="61.70" origLeaderSecureGap="23.71"/>
    <change id="main1.28" type="t0" time="165.00" from="beg2_1" to="beg2_0" dir="-1" speed="35.80" pos="2941.10" reason="keepRight" leaderGap="None" leaderSecureGap="None" followerGap="50.67" followerSecureGap="21.44" origLeaderGap="None" origLeaderSecureGap="None"/>
    <change id="main0.46" type="t0" time="165.00" from="beg2_0" to="beg2_1" dir="1" speed="13.17" pos="936.76" reason="strategic|urgent" leaderGap="19.30" leaderSecureGap="7.75" followerGap="7.85" followerSecureGap="0.00" origLeaderGap="58.23" origLeaderSecureGap="26.00"/>
    <change id="main0.35" type="t0" time="167.00" from="beg2_1" to="beg2_0" dir="-1" speed="34.74" pos="1434.33" reason="keepRight" leaderGap="193.57" leaderSecureGap="41.71" followerGap="429.34" followerSecureGap="0.00" origLeaderGap="91.27" origLeaderSecureGap="36.81"/>
    <change id="main0.48" type="t0" time="168.00" from="beg2_0" to="beg2_1" dir="1" speed="14.49" pos="955.42" reason="strategic|urgent" leaderGap="26.88" leaderSecureGap="0.55" followerGap="4.54" followerSecureGap="0.00" origLeaderGap="39.57" origLeaderSecureGap="30.94"/>
    <change id="main0.27" type="t0" time="169.00" from="beg2_1" to="beg2_0" dir="-1" speed="35.01" pos="2101.37" reason="keepRight" leaderGap="115.59" leaderSecureGap="43.37" followerGap="59.54" followerSecureGap="29.65" origLeaderGap="54.06" origLeaderSecureGap="38.81"/>
    <change id="main0.50" type="t0" time="170.00" from="beg2_0" to="beg2_1" dir="1" speed="9.18" pos="950.36" reason="strategic|urgent" leaderGap="13.67" leaderSecureGap="1.82" followerGap="6.19" followerSecureGap="0.00" origLeaderGap="44.63" origLeaderSecureGap="14.04"/>
    <change id="main0.38" type="t0" time="171.00" from="beg2_1" to="beg2_0" dir="-1" speed="34.66" pos="1381.83" reason="keepRight" leaderGap="186.60" leaderSecureGap="35.20" followerGap="376.84" followerSecureGap="0.00" origLeaderGap="59.45" origLeaderSecureGap="26.75"/>
    <change id="main1.36" type="t0" time="172.00" from="beg2_1" to="beg2_0" dir="-1" speed="35.17" pos="2263.77" reason="keepRight" leaderGap="56.09" leaderSecureGap="40.39" followerGap="50.89" followerSecureGap="39.59" origLeaderGap="282.01" origLeaderSecureGap="35.05"/>
    <change id="main0.51" type="t0" time="172.00" from="beg2_0" to="beg2_1" dir="1" speed="11.24" pos="955.14" reason="strategic|urgent" leaderGap="15.84" leaderSecureGap="4.95" followerGap="3.95" followerSecureGap="0.00" origLeaderGap="39.85" origLeaderSecureGap="20.21"/>
    <change id="main0.41" type="t0" time="175.00" from="beg2_1" to="beg2_0" dir="-1" speed="35.05" pos="1374.08" reason="keepRight" leaderGap="142.21" leaderSecureGap="36.80" followerGap="369.09" followerSecureGap="0.00" origLeaderGap="70.30" origLeaderSecureGap="30.04"/>
    <change id="main0.53" type="t0" time="175.00" from="beg2_0" to="beg2_1" dir="1" speed="13.22" pos="978.61" reason="strategic|urgent" leaderGap="15.91" leaderSecureGap="3.13" followerGap="7.69" followerSecureGap="0.06" origLeaderGap="16.38" origLeaderSecureGap="26.16"/>
    <change id="main0.173" type="t0" time="176.00" from="beg2_0" to="beg2_1" dir="1" speed="31.57" pos="36.14" reason="speedGain" leaderGap="64.03" leaderSecureGap="59.87" followerGap="None" followerSecureGap="None" origLeaderGap="25.31" origLeaderSecureGap="34.35"/>
    <change id="main0.55" type="t0" time="178.00" from="beg2_0" to="beg2_1" dir="1" speed="7.71" pos="985.89" reason="strategic|urgent" leaderGap="12.52" leaderSecureGap="0.00" followerGap="10.92" followerSecureGap="5.34" origLeaderGap="9.10" origLeaderSecureGap="10.92"/>
    <change id="main0.45" type="t0" time="179.00" from="beg2_1" to="beg2_0" dir="-1" speed="33.01" pos="1347.41" reason="keepRight" leaderGap="160.76" leaderSecureGap="24.93" followerGap="342.42" followerSecureGap="0.00" origLeaderGap="57.54" origLeaderSecureGap="14.04"/>
    <change id="main0.175" type="t0" time="179.00" from="beg2_0" to="beg2_1" dir="1" speed="27.74" pos="65.23" reason="speedGain" leaderGap="49.71" leaderSecureGap="35.93" followerGap="None" followerSecureGap="None" origLeaderGap="23.08" origLeaderSecureGap="35.05"/>
    <change id="main1.38" type="t0" time="181.00" from="beg2_1" to="beg2_0" dir="-1" speed="34.84" pos="2376.10" reason="keepRight" leaderGap="73.62" leaderSecureGap="34.29" followerGap="157.59" followerSecureGap="36.96" origLeaderGap="485.09" origLeaderSecureGap="32.47"/>
    <change id="main1.45" type="t0" time="181.00" from="beg2_1" to="beg2_0" dir="-1" speed="19.72" pos="1058.67" reason="keepRight" leaderGap="350.55" leaderSecureGap="0.00" followerGap="53.68" followerSecureGap="0.00" origLeaderGap="28.25" origLeaderSecureGap="5.24"/>
    <change id="main0.56" type="t0" time="181.00" from="beg2_0" to="beg2_1" dir="1" speed="0.73" pos="983.99" reason="strategic|urgent" leaderGap="3.94" leaderSecureGap="0.00" followerGap="10.66" followerSecureGap="3.66" origLeaderGap="11.00" origLeaderSecureGap="0.73"/>
    <change id="main1.42" type="t0" time="182.00" from="beg2_1" to="beg2_0" dir="-1" speed="35.39" pos="1834.56" reason="keepRight" leaderGap="117.76" leaderSecureGap="37.12" followerGap="61.95" followerSecureGap="37.55" origLeaderGap="73.65" origLeaderSecureGap="40.04"/>
    <change id="main0.57" type="t0" time="182.00" from="beg2_0" to="beg2_1" dir="1" speed="1.64" pos="976.39" reason="strategic|urgent" leaderGap="5.63" leaderSecureGap="1.64" followerGap="3.06" followerSecureGap="0.00" origLeaderGap="18.60" origLeaderSecureGap="1.64"/>
    <change id="main0.48" type="t0" time="183.00" from="beg2_1" to="beg2_0" dir="-1" speed="34.29" pos="1375.34" reason="keepRight" leaderGap="101.37" leaderSecureGap="39.21" followerGap="266.93" followerSecureGap="0.00" origLeaderGap="57.59" origLeaderSecureGap="37.28"/>
    <change id="main0.50" type="t0" time="186.00" from="beg2_1" to="beg2_0" dir="-1" speed="34.06" pos="1358.22" reason="keepRight" leaderGap="112.46" leaderSecureGap="35.43" followerGap="169.14" followerSecureGap="0.00" origLeaderGap="51.06" origLeaderSecureGap="20.75"/>
    <change id="main0.59" type="t0" time="186.00" from="beg2_0" to="beg2_1" dir="1" speed="2.39" pos="973.14" reason="strategic|urgent" leaderGap="3.89" leaderSecureGap="0.87" followerGap="4.99" followerSecureGap="2.08" origLeaderGap="21.85" origLeaderSecureGap="2.39"/>
    <change id="main0.61" type="t0" time="190.00" from="beg2_0" to="beg2_1" dir="1" speed="4.67" pos="975.50" reason="strategic|urgent" leaderGap="10.85" leaderSecureGap="2.16" followerGap="2.71" followerSecureGap="0.00" origLeaderGap="19.49" origLeaderSecureGap="4.85"/>
    <change id="main0.27" type="t0" time="192.00" from="beg2_0" to="beg2_1" dir="1" speed="34.54" pos="2908.57" reason="speedGain" leaderGap="None" leaderSecureGap="None" followerGap="181.84" followerSecureGap="43.39" origLeaderGap="42.25" origLeaderSecureGap="36.81"/>
    <change id="main0.57" type="t0" time="194.00" from="beg2_1" to="beg2_0" dir="-1" speed="23.88" pos="1134.90" reason="keepRight" leaderGap="302.94" leaderSecureGap="0.00" followerGap="129.90" followerSecureGap="0.00" origLeaderGap="34.07" origLeaderSecureGap="12.27"/>
    <change id="main0.63" type="t0" time="194.00" from="beg2_0" to="beg2_1" dir="1" speed="1.85" pos="971.27" reason="strategic|urgent" leaderGap="7.61" leaderSecureGap="0.00" followerGap="3.83" followerSecureGap="0.00" origLeaderGap="23.72" origLeaderSecureGap="1.85"/>
    <change id="main0.64" type="t0" time="197.00" from="beg2_0" to="beg2_1" dir="1" speed="1.10" pos="971.40" reason="strategic|urgent" leaderGap="11.01" leaderSecureGap="0.00" followerGap="3.69" followerSecureGap="0.00" origLeaderGap="23.59" origLeaderSecureGap="1.10"/>
    <change id="main1.50" type="t0" time="199.00" from="beg2_1" to="beg2_0" dir="-1" speed="3.03" pos="966.71" reason="speedGain" leaderGap="28.28" leaderSecureGap="3.03" followerGap="3.91" followerSecureGap="0.37" origLeaderGap="7.49" origLeaderSecureGap="2.76"/>
    <change id="main1.50" type="t0" time="200.00" from="beg2_0" to="beg2_1" dir="1" speed="5.10" pos="971.80" reason="strategic|urgent" leaderGap="8.73" leaderSecureGap="3.85" followerGap="8.45" followerSecureGap="2.11" origLeaderGap="23.19" origLeaderSecureGap="5.69"/>
    <change id="main0.65" type="t0" time="203.00" from="beg2_0" to="beg2_1" dir="1" speed="3.12" pos="965.13" reason="strategic|urgent" leaderGap="4.98" leaderSecureGap="0.52" followerGap="8.29" followerSecureGap="1.69" origLeaderGap="29.86" origLeaderSecureGap="3.12"/>
    <change id="main0.51" type="t0" time="204.00" from="beg2_1" to="beg2_0" dir="-1" speed="33.98" pos="1929.59" reason="keepRight" leaderGap="45.22" leaderSecureGap="27.10" followerGap="157.66" followerSecureGap="25.22" origLeaderGap="118.72" origLeaderSecureGap="21.86"/>
    <change id="main0.56" type="t0" time="204.00" from="beg2_1" to="beg2_0" dir="-1" speed="35.51" pos="1513.09" reason="keepRight" leaderGap="248.83" leaderSecureGap="53.91" followerGap="55.57" followerSecureGap="22.87" origLeaderGap="107.24" origLeaderSecureGap="32.92"/>
    <change id="main0.63" type="t0" time="204.00" from="beg2_1" to="beg2_0" dir="-1" speed="19.45" pos="1088.05" reason="keepRight" leaderGap="359.48" leaderSecureGap="0.00" followerGap="83.06" followerSecureGap="0.00" origLeaderGap="87.52" origLeaderSecureGap="0.00"/>
    <change id="main0.67" type="t0" time="205.00" from="beg2_0" to="beg2_1" dir="1" speed="4.15" pos="960.95" reason="strategic|urgent" leaderGap="9.50" leaderSecureGap="2.58" followerGap="4.10" followerSecureGap="0.00" origLeaderGap="34.04" origLeaderSecureGap="4.15"/>
    <change id="main0.68" type="t0" time="208.00" from="beg2_0" to="beg2_1" dir="1" speed="7.04" pos="964.85" reason="strategic|urgent" leaderGap="14.84" leaderSecureGap="3.20" followerGap="4.30" followerSecureGap="0.03" origLeaderGap="30.15" origLeaderSecureGap="9.58"/>
    <change id="main0.69" type="t0" time="212.00" from="beg2_0" to="beg2_1" dir="1" speed="6.20" pos="960.21" reason="strategic|urgent" leaderGap="14.76" leaderSecureGap="3.74" followerGap="6.74" followerSecureGap="0.00" origLeaderGap="34.78" origLeaderSecureGap="7.91"/>
    <change id="main0.61" type="t0" time="214.00" from="beg2_1" to="beg2_0" dir="-1" speed="35.85" pos="1582.17" reason="keepRight" leaderGap="206.24" leaderSecureGap="49.77" followerGap="202.40" followerSecureGap="11.09" origLeaderGap="57.14" origLeaderSecureGap="33.92"/>
    <change id="main0.55" type="t0" time="215.00" from="beg2_1" to="beg2_0" dir="-1" speed="32.43" pos="2051.53" reason="keepRight" leaderGap="67.03" leaderSecureGap="33.09" followerGap="144.74" followerSecureGap="52.11" origLeaderGap="217.13" origLeaderSecureGap="10.86"/>
    <change id="main1.51" type="t0" time="215.00" from="beg2_1" to="beg2_0" dir="-1" speed="26.90" pos="1189.36" reason="keepRight" leaderGap="212.03" leaderSecureGap="0.00" followerGap="184.36" followerSecureGap="0.00" origLeaderGap="50.16" origLeaderSecureGap="2.74"/>
    <change id="main1.71" type="t0" time="215.00" from="beg2_0" to="beg2_1" dir="1" speed="0.00" pos="939.83" reason="strategic|urgent" leaderGap="3.26" leaderSecureGap="0.00" followerGap="2.51" followerSecureGap="0.00" origLeaderGap="55.16" origLeaderSecureGap="0.00"/>
    <change id="main0.40" type="t0" time="216.00" from="beg2_1" to="beg2_0" dir="-1" speed="35.40" pos="2895.71" reason="keepRight" leaderGap="55.87" leaderSecureGap="34.20" followerGap="90.38" followerSecureGap="32.28" origLeaderGap="None" origLeaderSecureGap="None"/>
    <change id="main0.44" type="t0" time="219.00" from="beg2_1" to="beg2_0" dir="-1" speed="35.52" pos="2811.27" reason="keepRight" leaderGap="88.35" leaderSecureGap="38.19" followerGap="123.23" followerSecureGap="19.05" origLeaderGap="42.16" origLeaderSecureGap="38.46"/>
    <change id="main0.72" type="t0" time="219.00" from="beg2_0" to="beg2_1" dir="1" speed="8.60" pos="954.87" reason="strategic|urgent" leaderGap="27.97" leaderSecureGap="0.00" followerGap="6.54" followerSecureGap="0.00" origLeaderGap="40.12" origLeaderSecureGap="12.70"/>
    <change id="main0.73" type="t0" time="222.00" from="beg2_0" to="beg2_1" dir="1" speed="10.72" pos="959.34" reason="strategic|urgent" leaderGap="26.55" leaderSecureGap="4.13" followerGap="7.13" followerSecureGap="0.00" origLeaderGap="35.65" origLeaderSecureGap="18.66"/>