<?xml version="1.0" encoding="UTF-8"?>

<!-- generated on Wed May 30 09:51:46 2018 by Eclipse SUMO Version b2daee9
This data file and the accompanying materials
are made available under the terms of the Eclipse Public License v2.0
which accompanies this distribution, and is available at
http://www.eclipse.org/legal/epl-v20.html
SPDX-License-Identifier: EPL-2.0
<configuration xmlns:xsi="http://www.w3.org/2001/XMLSchema-instance" xsi:noNamespaceSchemaLocation="https://sumo.dlr.de/xsd/sumoConfiguration.xsd">

    <input>
        <net-file value="motorway.net.xml"/>
        <route-files value="input_routes.rou.xml"/>
        <additional-files value="input_additional.add.xml"/>
    </input>

    <output>
        <write-license value="true"/>
        <lanechange-output value="lanechanges.xml"/>
    </output>

    <processing>
        <lateral-resolution value="0.8"/>
        <max-depart-delay value="1"/>
    </processing>

    <report>
        <xml-validation value="never"/>
        <no-step-log value="true"/>
    </report>

</configuration>
-->

<lanechanges>
    <change id="main0.1" type="t0" time="15.00" from="beg2_0" to="beg2_1" dir="1" speed="34.06" pos="437.98" reason="speedGain" leaderGap="None" leaderSecureGap="None" followerGap="70.10" followerSecureGap="77.27" origLeaderGap="46.00" origLeaderSecureGap="33.96" latGap="None"/>
    <change id="main0.5" type="t0" time="16.00" from="beg2_0" to="beg2_1" dir="1" speed="33.97" pos="321.69" reason="speedGain" leaderGap="51.56" leaderSecureGap="25.44" followerGap="None" followerSecureGap="None" origLeaderGap="45.36" origLeaderSecureGap="45.10" latGap="None"/>
    <change id="main0.1" type="t0" time="49.00" from="beg2_1" to="beg2_0" dir="-1" speed="36.93" pos="1685.63" reason="keepRight" leaderGap="None" leaderSecureGap="None" followerGap="680.63" followerSecureGap="0.00" origLeaderGap="None" origLeaderSecureGap="None" latGap="None"/>
    <change id="main1.15" type="t0" time="50.00" from="beg2_1" to="beg2_0" dir="-1" speed="34.86" pos="1578.90" reason="keepRight" leaderGap="138.85" leaderSecureGap="17.84" followerGap="503.99" followerSecureGap="25.51" origLeaderGap="87.73" origLeaderSecureGap="19.58" latGap="None"/>
    <change id="main1.16" type="t0" time="53.00" from="beg2_1" to="beg2_0" dir="-1" speed="35.82" pos="1568.33" reason="keepRight" leaderGap="112.09" leaderSecureGap="34.50" followerGap="563.34" followerSecureGap="0.00" origLeaderGap="64.07" origLeaderSecureGap="32.17" latGap="None"/>
    <change id="main1.23" type="t0" time="54.00" from="beg2_1" to="beg2_0" dir="-1" speed="33.70" pos="1202.99" reason="keepRight" leaderGap="329.62" leaderSecureGap="25.25" followerGap="197.99" followerSecureGap="0.00" origLeaderGap="90.32" origLeaderSecureGap="26.61" latGap="None"/>
    <change id="main1.17" type="t0" time="55.00" from="beg2_1" to="beg2_0" dir="-1" speed="34.50" pos="1572.10" reason="keepRight" leaderGap="62.46" leaderSecureGap="28.01" followerGap="330.91" followerSecureGap="24.17" origLeaderGap="132.81" origLeaderSecureGap="22.99" latGap="None"/>
    <change id="main1.22" type="t0" time="62.00" from="beg2_1" to="beg2_0" dir="-1" speed="35.22" pos="1577.34" reason="keepRight" leaderGap="232.96" leaderSecureGap="36.83" followerGap="104.88" followerSecureGap="14.09" origLeaderGap="46.24" origLeaderSecureGap="29.67" latGap="None"/>
    <change id="main1.24" type="t0" time="63.00" from="beg2_1" to="beg2_0" dir="-1" speed="32.58" pos="1437.11" reason="keepRight" leaderGap="58.26" leaderSecureGap="30.35" followerGap="432.12" followerSecureGap="0.00" origLeaderGap="271.11" origLeaderSecureGap="6.62" latGap="None"/>
    <change id="main1.21" type="t0" time="64.00" from="beg2_1" to="beg2_0" dir="-1" speed="35.78" pos="1698.99" reason="keepRight" leaderGap="180.61" leaderSecureGap="42.25" followerGap="46.62" followerSecureGap="27.87" origLeaderGap="44.65" origLeaderSecureGap="38.31" latGap="None"/>
    <change id="main1.27" type="t0" time="64.00" from="beg2_1" to="beg2_0" dir="-1" speed="31.69" pos="1329.24" reason="keepRight" leaderGap="135.30" leaderSecureGap="26.50" followerGap="324.25" followerSecureGap="0.00" origLeaderGap="42.17" origLeaderSecureGap="19.46" latGap="None"/>
    <change id="main1.31" type="t0" time="74.00" from="beg2_1" to="beg2_0" dir="-1" speed="34.85" pos="1484.06" reason="keepRight" leaderGap="176.45" leaderSecureGap="42.19" followerGap="479.07" followerSecureGap="0.00" origLeaderGap="50.71" origLeaderSecureGap="28.28" latGap="None"/>
    <change id="main1.32" type="t0" time="75.00" from="beg2_1" to="beg2_0" dir="-1" speed="33.71" pos="1468.23" reason="keepRight" leaderGap="44.94" leaderSecureGap="30.84" followerGap="463.24" followerSecureGap="0.00" origLeaderGap="101.87" origLeaderSecureGap="22.29" latGap="None"/>
    <change id="main1.19" type="t0" time="76.00" from="beg2_1" to="beg2_0" dir="-1" speed="35.92" pos="2229.97" reason="keepRight" leaderGap="64.92" leaderSecureGap="45.13" followerGap="44.65" followerSecureGap="34.65" origLeaderGap="67.97" origLeaderSecureGap="27.05" latGap="None"/>
    <change id="main1.20" type="t0" time="76.00" from="beg2_1" to="beg2_0" dir="-1" speed="35.76" pos="2180.31" reason="keepRight" leaderGap="44.65" leaderSecureGap="34.65" followerGap="44.20" followerSecureGap="30.12" origLeaderGap="117.62" origLeaderSecureGap="25.77" latGap="None"/>
    <change id="main1.35" type="t0" time="81.00" from="beg2_1" to="beg2_0" dir="-1" speed="34.20" pos="1531.79" reason="keepRight" leaderGap="133.95" leaderSecureGap="34.33" followerGap="406.33" followerSecureGap="19.20" origLeaderGap="47.09" origLeaderSecureGap="18.74" latGap="None"/>
    <change id="main1.45" type="t0" time="84.00" from="beg2_1" to="beg2_0" dir="-1" speed="32.77" pos="1217.93" reason="keepRight" leaderGap="411.74" leaderSecureGap="22.77" followerGap="212.94" followerSecureGap="0.00" origLeaderGap="82.58" origLeaderSecureGap="23.36" latGap="None"/>
    <change id="main1.38" type="t0" time="88.00" from="beg2_1" to="beg2_0" dir="-1" speed="35.48" pos="1629.05" reason="keepRight" leaderGap="138.90" leaderSecureGap="41.36" followerGap="276.58" followerSecureGap="10.67" origLeaderGap="42.39" origLeaderSecureGap="42.70" latGap="None"/>
    <change id="main1.40" type="t0" time="89.00" from="beg2_1" to="beg2_0" dir="-1" speed="35.43" pos="1616.22" reason="keepRight" leaderGap="42.64" leaderSecureGap="39.81" followerGap="231.36" followerSecureGap="11.05" origLeaderGap="89.09" origLeaderSecureGap="46.46" latGap="None"/>
    <change id="main1.42" type="t0" time="90.00" from="beg2_1" to="beg2_0" dir="-1" speed="35.69" pos="1604.03" reason="keepRight" leaderGap="42.26" leaderSecureGap="39.97" followerGap="186.55" followerSecureGap="11.11" origLeaderGap="135.93" origLeaderSecureGap="42.89" latGap="None"/>
    <change id="main1.36" type="t0" time="91.00" from="beg2_1" to="beg2_0" dir="-1" speed="34.08" pos="1826.19" reason="keepRight" leaderGap="44.54" leaderSecureGap="34.38" followerGap="87.84" followerSecureGap="41.46" origLeaderGap="110.79" origLeaderSecureGap="17.81" latGap="None"/>
    <change id="main1.44" type="t0" time="95.00" from="beg2_1" to="beg2_0" dir="-1" speed="35.77" pos="1686.67" reason="keepRight" leaderGap="84.97" leaderSecureGap="46.31" followerGap="108.58" followerSecureGap="5.76" origLeaderGap="41.73" origLeaderSecureGap="34.35" latGap="None"/>
    <change id="main1.51" type="t0" time="97.00" from="beg2_1" to="beg2_0" dir="-1" speed="33.32" pos="1469.28" reason="keepRight" leaderGap="163.13" leaderSecureGap="43.46" followerGap="464.29" followerSecureGap="0.00" origLeaderGap="52.56" origLeaderSecureGap="24.57" latGap="None"/>
    <change id="main1.54" type="t0" time="102.00" from="beg2_1" to="beg2_0" dir="-1" speed="34.05" pos="1543.56" reason="keepRight" leaderGap="87.59" leaderSecureGap="38.30" followerGap="538.57" followerSecureGap="0.00" origLeaderGap="51.07" origLeaderSecureGap="16.83" latGap="None"/>
    <change id="main1.59" type="t0" time="104.00" from="beg2_1" to="beg2_0" dir="-1" speed="33.54" pos="1469.75" reason="keepRight" leaderGap="137.43" leaderSecureGap="27.40" followerGap="464.76" followerSecureGap="0.00" origLeaderGap="43.00" origLeaderSecureGap="32.02" latGap="None"/>
    <change id="main1.58" type="t0" time="110.00" from="beg2_1" to="beg2_0" dir="-1" speed="35.64" pos="1730.62" reason="keepRight" leaderGap="80.91" leaderSecureGap="45.26" followerGap="50.37" followerSecureGap="26.21" origLeaderGap="52.19" origLeaderSecureGap="29.55" latGap="None"/>
    <change id="main1.71" type="t0" time="110.00" from="beg2_1" to="beg2_0" dir="-1" speed="30.01" pos="1189.96" reason="keepRight" leaderGap="245.24" leaderSecureGap="0.00" followerGap="184.97" followerSecureGap="0.00" origLeaderGap="102.15" origLeaderSecureGap="15.13" latGap="None"/>
    <change id="main1.65" type="t0" time="111.00" from="beg2_1" to="beg2_0" dir="-1" speed="34.49" pos="1474.69" reason="keepRight" leaderGap="229.48" leaderSecureGap="38.49" followerGap="248.68" followerSecureGap="7.42" origLeaderGap="44.96" origLeaderSecureGap="30.38" latGap="None"/>
    <change id="main1.47" type="t0" time="115.00" from="beg2_1" to="beg2_0" dir="-1" speed="35.73" pos="2271.85" reason="keepRight" leaderGap="117.90" leaderSecureGap="39.55" followerGap="43.85" followerSecureGap="10.25" origLeaderGap="163.83" origLeaderSecureGap="42.02" latGap="None"/>
    <change id="main1.64" type="t0" time="116.00" from="beg2_1" to="beg2_0" dir="-1" speed="35.47" pos="1703.33" reason="keepRight" leaderGap="171.90" leaderSecureGap="47.11" followerGap="52.06" followerSecureGap="30.54" origLeaderGap="44.39" origLeaderSecureGap="43.36" latGap="None"/>
    <change id="main1.70" type="t0" time="116.00" from="beg2_1" to="beg2_0" dir="-1" speed="33.83" pos="1501.15" reason="keepRight" leaderGap="140.13" leaderSecureGap="26.62" followerGap="122.22" followerSecureGap="6.01" origLeaderGap="48.40" origLeaderSecureGap="24.53" latGap="None"/>
    <change id="main1.68" type="t0" time="122.00" from="beg2_1" to="beg2_0" dir="-1" speed="35.55" pos="1767.70" reason="keepRight" leaderGap="82.30" leaderSecureGap="39.44" followerGap="56.76" followerSecureGap="26.60" origLeaderGap="63.85" origLeaderSecureGap="18.37" latGap="None"/>
    <change id="main1.79" type="t0" time="123.00" from="beg2_1" to="beg2_0" dir="-1" speed="33.58" pos="1347.21" reason="keepRight" leaderGap="238.28" leaderSecureGap="50.34" followerGap="342.22" followerSecureGap="0.00" origLeaderGap="41.13" origLeaderSecureGap="37.10" latGap="None"/>
    <change id="main1.85" type="t0" time="131.00" from="beg2_1" to="beg2_0" dir="-1" speed="34.00" pos="1426.63" reason="keepRight" leaderGap="181.74" leaderSecureGap="38.02" followerGap="421.64" followerSecureGap="0.00" origLeaderGap="52.49" origLeaderSecureGap="27.00" latGap="None"/>
    <change id="main1.75" type="t0" time="133.00" from="beg2_1" to="beg2_0" dir="-1" speed="33.55" pos="1819.19" reason="speedGain" leaderGap="71.09" leaderSecureGap="53.02" followerGap="135.05" followerSecureGap="26.80" origLeaderGap="40.81" origLeaderSecureGap="37.48" latGap="None"/>
    <change id="main1.63" type="t0" time="134.00" from="beg2_1" to="beg2_0" dir="-1" speed="36.25" pos="2397.71" reason="speedGain" leaderGap="94.15" leaderSecureGap="50.56" followerGap="46.65" followerSecureGap="27.46" origLeaderGap="42.52" origLeaderSecureGap="41.44" latGap="None"/>
    <change id="main1.72" type="t0" time="136.00" from="beg2_1" to="beg2_0" dir="-1" speed="33.89" pos="2012.11" reason="keepRight" leaderGap="167.93" leaderSecureGap="32.38" followerGap="19.71" followerSecureGap="10.37" origLeaderGap="345.92" origLeaderSecureGap="7.04" latGap="None"/>
    <change id="main1.91" type="t0" time="137.00" from="beg2_1" to="beg2_0" dir="-1" speed="33.47" pos="1442.79" reason="keepRight" leaderGap="178.94" leaderSecureGap="38.08" followerGap="437.80" followerSecureGap="0.00" origLeaderGap="45.06" origLeaderSecureGap="14.17" latGap="None"/>
    <change id="main1.78" type="t0" time="139.00" from="beg2_1" to="beg2_0" dir="-1" speed="33.30" pos="1926.30" reason="keepRight" leaderGap="89.38" leaderSecureGap="32.76" followerGap="42.12" followerSecureGap="27.41" origLeaderGap="56.25" origLeaderSecureGap="7.47" latGap="None"/>
    <change id="main1.94" type="t0" time="141.00" from="beg2_1" to="beg2_0" dir="-1" speed="33.46" pos="1483.14" reason="keepRight" leaderGap="90.88" leaderSecureGap="30.33" followerGap="478.15" followerSecureGap="0.00" origLeaderGap="48.31" origLeaderSecureGap="22.20" latGap="None"/>
    <change id="main1.99" type="t0" time="147.00" from="beg2_1" to="beg2_0" dir="-1" speed="33.98" pos="1548.80" reason="keepRight" leaderGap="130.30" leaderSecureGap="41.32" followerGap="543.81" followerSecureGap="0.00" origLeaderGap="44.83" origLeaderSecureGap="29.19" latGap="None"/>
    <change id="main1.106" type="t0" time="148.00" from="beg2_1" to="beg2_0" dir="-1" speed="32.43" pos="1335.84" reason="keepRight" leaderGap="243.01" leaderSecureGap="14.11" followerGap="330.85" followerSecureGap="0.00" origLeaderGap="54.90" origLeaderSecureGap="24.36" latGap="None"/>
    <change id="main1.103" type="t0" time="150.00" from="beg2_1" to="beg2_0" dir="-1" speed="34.39" pos="1511.90" reason="keepRight" leaderGap="135.90" leaderSecureGap="35.73" followerGap="106.08" followerSecureGap="15.70" origLeaderGap="42.52" origLeaderSecureGap="22.66" latGap="None"/>
    <change id="main1.75" type="t0" time="152.00" from="beg2_0" to="beg2_1" dir="1" speed="30.11" pos="2431.99" reason="speedGain" leaderGap="24.53" leaderSecureGap="0.00" followerGap="87.77" followerSecureGap="79.23" origLeaderGap="40.19" origLeaderSecureGap="28.48" latGap="None"/>
    <change id="main1.110" type="t0" time="152.00" from="beg2_1" to="beg2_0" dir="-1" speed="32.49" pos="1325.90" reason="keepRight" leaderGap="134.37" leaderSecureGap="37.75" followerGap="320.91" followerSecureGap="0.00" origLeaderGap="47.58" origLeaderSecureGap="16.52" latGap="None"/>
    <change id="main1.102" type="t0" time="154.00" from="beg2_1" to="beg2_0" dir="-1" speed="35.43" pos="1700.38" reason="keepRight" leaderGap="84.22" leaderSecureGap="42.40" followerGap="44.27" followerSecureGap="33.72" origLeaderGap="45.21" origLeaderSecureGap="36.12" latGap="None"/>
    <change id="main1.90" type="t0" time="156.00" from="beg2_1" to="beg2_0" dir="-1" speed="34.52" pos="2148.99" reason="keepRight" leaderGap="106.93" leaderSecureGap="44.03" followerGap="48.24" followerSecureGap="35.83" origLeaderGap="43.80" origLeaderSecureGap="26.26" latGap="None"/>
    <change id="main1.116" type="t0" time="163.00" from="beg2_1" to="beg2_0" dir="-1" speed="33.56" pos="1512.66" reason="keepRight" leaderGap="166.49" leaderSecureGap="43.50" followerGap="507.67" followerSecureGap="0.00" origLeaderGap="51.99" origLeaderSecureGap="20.14" latGap="None"/>
    <change id="main1.120" type="t0" time="166.00" from="beg2_1" to="beg2_0" dir="-1" speed="33.87" pos="1474.32" reason="keepRight" leaderGap="42.14" leaderSecureGap="32.08" followerGap="469.33" followerSecureGap="0.00" origLeaderGap="92.74" origLeaderSecureGap="17.37" latGap="None"/>
    <change id="main1.119" type="t0" time="167.00" from="beg2_1" to="beg2_0" dir="-1" speed="34.56" pos="1556.02" reason="keepRight" leaderGap="86.68" leaderSecureGap="42.03" followerGap="41.99" followerSecureGap="35.75" origLeaderGap="46.51" origLeaderSecureGap="28.20" latGap="None"/>
    <change id="main1.124" type="t0" time="170.00" from="beg2_1" to="beg2_0" dir="-1" speed="33.96" pos="1470.72" reason="keepRight" leaderGap="136.37" leaderSecureGap="32.14" followerGap="465.73" followerSecureGap="0.00" origLeaderGap="46.64" origLeaderSecureGap="17.26" latGap="None"/>
    <change id="main0.164" type="t0" time="170.00" from="beg2_0" to="beg2_1" dir="1" speed="23.31" pos="123.87" reason="speedGain" leaderGap="15.39" leaderSecureGap="0.00" followerGap="62.52" followerSecureGap="82.02" origLeaderGap="45.15" origLeaderSecureGap="64.80" latGap="None"/>
    <change id="main1.126" type="t0" time="171.00" from="beg2_1" to="beg2_0" dir="-1" speed="32.94" pos="1405.97" reason="keepRight" leaderGap="93.31" leaderSecureGap="28.64" followerGap="400.98" followerSecureGap="0.00" origLeaderGap="47.90" origLeaderSecureGap="25.59" latGap="None"/>
    <change id="main1.129" type="t0" time="174.00" from="beg2_1" to="beg2_0" dir="-1" speed="31.28" pos="1354.71" reason="keepRight" leaderGap="145.57" leaderSecureGap="16.05" followerGap="349.72" followerSecureGap="0.00" origLeaderGap="104.44" origLeaderSecureGap="0.00" latGap="None"/>
    <change id="main1.107" type="t0" time="180.00" from="beg2_1" to="beg2_0" dir="-1" speed="34.34" pos="2402.75" reason="keepRight" leaderGap="144.77" leaderSecureGap="35.86" followerGap="24.49" followerSecureGap="16.97" origLeaderGap="117.92" origLeaderSecureGap="24.31" latGap="None"/>
    <change id="main1.141" type="t0" time="184.00" from="beg2_1" to="beg2_0" dir="-1" speed="31.35" pos="1299.56" reason="keepRight" leaderGap="360.25" leaderSecureGap="32.51" followerGap="294.57" followerSecureGap="0.00" origLeaderGap="63.54" origLeaderSecureGap="26.26" latGap="None"/>
    <change id="main1.137" type="t0" time="187.00" from="beg2_1" to="beg2_0" dir="-1" speed="32.87" pos="1556.77" reason="keepRight" leaderGap="38.73" leaderSecureGap="38.20" followerGap="159.02" followerSecureGap="19.53" origLeaderGap="97.40" origLeaderSecureGap="24.56" latGap="None"/>
    <change id="main1.136" type="t0" time="188.00" from="beg2_1" to="beg2_0" dir="-1" speed="33.27" pos="1633.77" reason="keepRight" leaderGap="149.59" leaderSecureGap="48.67" followerGap="39.63" followerSecureGap="26.07" origLeaderGap="55.69" origLeaderSecureGap="19.13" latGap="None"/>
    <change id="main1.132" type="t0" time="199.00" from="beg2_1" to="beg2_0" dir="-1" speed="35.10" pos="2179.99" reason="keepRight" leaderGap="148.76" leaderSecureGap="48.28" followerGap="46.64" followerSecureGap="0.00" origLeaderGap="170.27" origLeaderSecureGap="27.16" latGap="None"/>
    <change id="main1.154" type="t0" time="200.00" from="beg2_1" to="beg2_0" dir="-1" speed="34.06" pos="1422.38" reason="keepRight" leaderGap="368.57" leaderSecureGap="52.16" followerGap="417.39" followerSecureGap="0.00" origLeaderGap="44.55" origLeaderSecureGap="27.57" latGap="None"/>
    <change id="main1.160" type="t0" time="205.00" from="beg2_1" to="beg2_0" dir="-1" speed="32.97" pos="1444.27" reason="keepRight" leaderGap="141.31" leaderSecureGap="27.00" followerGap="439.28" followerSecureGap="0.00" origLeaderGap="59.85" origLeaderSecureGap="3.39" latGap="None"/>
    <change id="main0.203" type="t0" time="207.00" from="beg2_0" to="beg2_1" dir="1" speed="28.04" pos="63.26" reason="speedGain" leaderGap="24.65" leaderSecureGap="0.00" followerGap="None" followerSecureGap="None" origLeaderGap="84.09" origLeaderSecureGap="101.75" latGap="None"/>
    <change id="main1.153" type="t0" time="208.00" from="beg2_1" to="beg2_0" dir="-1" speed="33.52" pos="1749.51" reason="keepRight" leaderGap="289.68" leaderSecureGap="48.80" followerGap="52.93" followerSecureGap="33.59" origLeaderGap="42.79" origLeaderSecureGap="22.16" latGap="None"/>
    <change id="main0.206" type="t0" time="210.00" from="beg2_0" to="beg2_1" dir="1" speed="27.88" pos="71.03" reason="speedGain" leaderGap="67.41" leaderSecureGap="24.34" followerGap="None" followerSecureGap="None" origLeaderGap="76.34" origLeaderSecureGap="100.68" latGap="None"/>
    <change id="main1.144" type="t0" time="211.00" from="beg2_1" to="beg2_0" dir="-1" speed="34.65" pos="2188.97" reason="keepRight" leaderGap="143.96" leaderSecureGap="44.80" followerGap="47.19" followerSecureGap="4.12" origLeaderGap="92.58" origLeaderSecureGap="32.45" latGap="None"/>
    <change id="main1.151" type="t0" time="211.00" from="beg2_1" to="beg2_0" dir="-1" speed="34.36" pos="1902.27" reason="keepRight" leaderGap="229.50" leaderSecureGap="58.96" followerGap="42.51" followerSecureGap="36.39" origLeaderGap="43.32" origLeaderSecureGap="30.09" latGap="None"/>
    <change id="main1.133" type="t0" time="212.00" from="beg2_1" to="beg2_0" dir="-1" speed="34.64" pos="2578.11" reason="keepRight" leaderGap="53.91" leaderSecureGap="28.37" followerGap="42.58" followerSecureGap="0.94" origLeaderGap="235.93" origLeaderSecureGap="28.25" latGap="None"/>
    <change id="main0.187" type="t0" time="212.00" from="beg2_0" to="beg2_1" dir="1" speed="0.00" pos="152.37" reason="speedGain" leaderGap="17.51" leaderSecureGap="0.00" followerGap="34.08" followerSecureGap="49.42" origLeaderGap="2.50" origLeaderSecureGap="0.00" latGap="None"/>
    <change id="main0.164" type="t0" time="213.00" from="beg2_1" to="beg2_0" dir="-1" speed="33.71" pos="1481.96" reason="keepRight" leaderGap="220.54" leaderSecureGap="37.12" followerGap="476.97" followerSecureGap="0.00" origLeaderGap="43.33" origLeaderSecureGap="31.71" latGap="None"/>
    <change id="main0.170" type="t0" time="213.00" from="beg2_0" to="beg2_1" dir="1" speed="0.00" pos="197.38" reason="speedGain" leaderGap="2.50" leaderSecureGap="0.00" followerGap="2.50" followerSecureGap="0.00" origLeaderGap="32.51" origLeaderSecureGap="0.00" latGap="None"/>
    <change id="main0.171" type="t0" time="213.00" from="beg2_0" to="beg2_1" dir="1" speed="0.00" pos="189.88" reason="speedGain" leaderGap="2.50" leaderSecureGap="0.00" followerGap="2.50" followerSecureGap="0.00" origLeaderGap="40.01" origLeaderSecureGap="0.00" latGap="None"/>
    <change id="main0.173" type="t0" time="213.00" from="beg2_0" to="beg2_1" dir="1" speed="0.00" pos="182.38" reason="speedGain" leaderGap="2.50" leaderSecureGap="0.00" followerGap="2.50" followerSecureGap="0.00" origLeaderGap="47.51" origLeaderSecureGap="0.00" latGap="None"/>
    <change id="main0.174" type="t0" time="213.00" from="beg2_0" to="beg2_1" dir="1" speed="0.00" pos="174.88" reason="speedGain" leaderGap="2.50" leaderSecureGap="0.00" followerGap="17.50" followerSecureGap="0.00" origLeaderGap="55.01" origLeaderSecureGap="0.00" latGap="None"/>
    <change id="main0.159" type="t0" time="214.00" from="beg2_0" to="beg2_1" dir="1" speed="0.00" pos="227.38" reason="speedGain" leaderGap="2.50" leaderSecureGap="0.00" followerGap="2.50" followerSecureGap="0.00" origLeaderGap="32.51" origLeaderSecureGap="0.00" latGap="None"/>
    <change id="main0.160" type="t0" time="214.00" from="beg2_0" to="beg2_1" dir="1" speed="0.00" pos="219.88" reason="speedGain" leaderGap="2.50" leaderSecureGap="0.00" followerGap="2.50" followerSecureGap="0.00" origLeaderGap="40.01" origLeaderSecureGap="0.00" latGap="None"/>
    <change id="main0.161" type="t0" time="214.00" from="beg2_0" to="beg2_1" dir="1" speed="0.00" pos="212.38" reason="speedGain" leaderGap="2.50" leaderSecureGap="0.00" followerGap="2.50" followerSecureGap="0.00" origLeaderGap="47.51" origLeaderSecureGap="0.00" latGap="None"/>
    <change id="main0.167" type="t0" time="214.00" from="beg2_0" to="beg2_1" dir="1" speed="0.00" pos="204.88" reason="speedGain" leaderGap="2.50" leaderSecureGap="0.00" followerGap="2.50" followerSecureGap="0.00" origLeaderGap="55.01" origLeaderSecureGap="0.00" latGap="None"/>
    <change id="main0.175" type="t0" time="214.00" from="beg2_0" to="beg2_1" dir="1" speed="0.00" pos="167.38" reason="speedGain" leaderGap="2.50" leaderSecureGap="0.00" followerGap="8.07" followerSecureGap="1.93" origLeaderGap="92.51" origLeaderSecureGap="0.00" latGap="None"/>
    <change id="main1.164" type="t0" time="215.00" from="beg2_1" to="beg2_0" dir="-1" speed="33.34" pos="1597.03" reason="keepRight" leaderGap="171.15" leaderSecureGap="36.87" followerGap="43.21" followerSecureGap="30.65" origLeaderGap="41.89" origLeaderSecureGap="29.92" latGap="None"/>
    <change id="main0.152" type="t0" time="215.00" from="beg2_0" to="beg2_1" dir="1" speed="0.00" pos="257.39" reason="speedGain" leaderGap="2.50" leaderSecureGap="0.00" followerGap="2.50" followerSecureGap="0.00" origLeaderGap="40.01" origLeaderSecureGap="0.00" latGap="None"/>
    <change id="main0.153" type="t0" time="215.00" from="beg2_0" to="beg2_1" dir="1" speed="0.00" pos="249.89" reason="speedGain" leaderGap="2.50" leaderSecureGap="0.00" followerGap="2.50" followerSecureGap="0.00" origLeaderGap="47.51" origLeaderSecureGap="0.00" latGap="None"/>
    <change id="main0.157" type="t0" time="215.00" from="beg2_0" to="beg2_1" dir="1" speed="0.00" pos="242.39" reason="speedGain" leaderGap="2.50" leaderSecureGap="0.00" followerGap="2.50" followerSecureGap="0.00" origLeaderGap="55.01" origLeaderSecureGap="0.00" latGap="None"/>
    <change id="main0.158" type="t0" time="215.00" from="beg2_0" to="beg2_1" dir="1" speed="0.00" pos="234.89" reason="speedGain" leaderGap="2.50" leaderSecureGap="0.00" followerGap="2.50" followerSecureGap="0.00" origLeaderGap="62.51" origLeaderSecureGap="0.00" latGap="None"/>
    <change id="main1.128" type="t0" time="216.00" from="beg2_1" to="beg2_0" dir="-1" speed="36.08" pos="2962.13" reason="keepRight" leaderGap="None" leaderSecureGap="None" followerGap="59.25" followerSecureGap="12.06" origLeaderGap="None" origLeaderSecureGap="None" latGap="None"/>
    <change id="main1.150" type="t0" time="216.00" from="beg2_1" to="beg2_0" dir="-1" speed="34.23" pos="2122.45" reason="keepRight" leaderGap="163.54" leaderSecureGap="59.82" followerGap="41.48" followerSecureGap="35.29" origLeaderGap="44.23" origLeaderSecureGap="29.22" latGap="None"/>
    <change id="main0.141" type="t0" time="216.00" from="beg2_0" to="beg2_1" dir="1" speed="0.00" pos="294.89" reason="speedGain" leaderGap="2.50" leaderSecureGap="0.00" followerGap="2.50" followerSecureGap="0.00" origLeaderGap="32.51" origLeaderSecureGap="0.00" latGap="None"/>
    <change id="main0.143" type="t0" time="216.00" from="beg2_0" to="beg2_1" dir="1" speed="0.00" pos="287.39" reason="speedGain" leaderGap="2.50" leaderSecureGap="0.00" followerGap="2.50" followerSecureGap="0.00" origLeaderGap="40.01" origLeaderSecureGap="0.00" latGap="None"/>
    <change id="main0.147" type="t0" time="216.00" from="beg2_0" to="beg2_1" dir="1" speed="0.00" pos="279.89" reason="speedGain" leaderGap="2.50" leaderSecureGap="0.00" followerGap="2.50" followerSecureGap="0.00" origLeaderGap="47.51" origLeaderSecureGap="0.00" latGap="None"/>
    <change id="main0.148" type="t0" time="216.00" from="beg2_0" to="beg2_1" dir="1" speed="0.00" pos="272.39" reason="speedGain" leaderGap="2.50" leaderSecureGap="0.00" followerGap="2.50" followerSecureGap="0.00" origLeaderGap="55.01" origLeaderSecureGap="0.00" latGap="None"/>
    <change id="main0.150" type="t0" time="216.00" from="beg2_0" to="beg2_1" dir="1" speed="0.00" pos="264.89" reason="speedGain" leaderGap="2.50" leaderSecureGap="0.00" followerGap="2.50" followerSecureGap="0.00" origLeaderGap="62.51" origLeaderSecureGap="0.00" latGap="None"/>
    <change id="main0.135" type="t0" time="217.00" from="beg2_0" to="beg2_1" dir="1" speed="0.00" pos="324.90" reason="speedGain" leaderGap="2.50" leaderSecureGap="0.00" followerGap="2.50" followerSecureGap="0.00" origLeaderGap="32.51" origLeaderSecureGap="0.00" latGap="None"/>
    <change id="main0.136" type="t0" time="217.00" from="beg2_0" to="beg2_1" dir="1" speed="0.00" pos="317.40" reason="speedGain" leaderGap="2.50" leaderSecureGap="0.00" followerGap="2.50" followerSecureGap="0.00" origLeaderGap="40.01" origLeaderSecureGap="0.00" latGap="None"/>
    <change id="main0.139" type="t0" time="217.00" from="beg2_0" to="beg2_1" dir="1" speed="0.00" pos="309.90" reason="speedGain" leaderGap="2.50" leaderSecureGap="0.00" followerGap="2.50" followerSecureGap="0.00" origLeaderGap="47.51" origLeaderSecureGap="0.00" latGap="None"/>
    <change id="main0.140" type="t0" time="217.00" from="beg2_0" to="beg2_1" dir="1" speed="0.00" pos="302.39" reason="speedGain" leaderGap="2.50" leaderSecureGap="0.00" followerGap="2.50" followerSecureGap="0.00" origLeaderGap="55.01" origLeaderSecureGap="0.00" latGap="None"/>
    <change id="main1.162" type="t0" time="218.00" from="beg2_1" to="beg2_0" dir="-1" speed="34.46" pos="1792.53" reason="keepRight" leaderGap="74.79" leaderSecureGap="44.58" followerGap="88.92" followerSecureGap="28.63" origLeaderGap="44.77" origLeaderSecureGap="34.39" latGap="None"/>
    <change id="main0.127" type="t0" time="218.00" from="beg2_0" to="beg2_1" dir="1" speed="0.00" pos="354.90" reason="speedGain" leaderGap="2.50" leaderSecureGap="0.00" followerGap="2.50" followerSecureGap="0.00" origLeaderGap="40.01" origLeaderSecureGap="0.00" latGap="None"/>
    <change id="main0.129" type="t0" time="218.00" from="beg2_0" to="beg2_1" dir="1" speed="0.00" pos="347.40" reason="speedGain" leaderGap="2.50" leaderSecureGap="0.00" followerGap="2.50" followerSecureGap="0.00" origLeaderGap="47.51" origLeaderSecureGap="0.00" latGap="None"/>
    <change id="main0.131" type="t0" time="218.00" from="beg2_0" to="beg2_1" dir="1" speed="0.00" pos="339.90" reason="speedGain" leaderGap="2.50" leaderSecureGap="0.00" followerGap="2.50" followerSecureGap="0.00" origLeaderGap="55.01" origLeaderSecureGap="0.00" latGap="None"/>
    <change id="main0.133" type="t0" time="218.00" from="beg2_0" to="beg2_1" dir="1" speed="0.00" pos="332.40" reason="speedGain" leaderGap="2.50" leaderSecureGap="0.00" followerGap="2.50" followerSecureGap="0.00" origLeaderGap="62.51" origLeaderSecureGap="0.00" latGap="None"/>
    <change id="main0.120" type="t0" time="219.00" from="beg2_0" to="beg2_1" dir="1" speed="0.00" pos="392.41" reason="speedGain" leaderGap="2.50" leaderSecureGap="0.00" followerGap="2.50" followerSecureGap="0.00" origLeaderGap="32.51" origLeaderSecureGap="0.00" latGap="None"/>
    <change id="main0.121" type="t0" time="219.00" from="beg2_0" to="beg2_1" dir="1" speed="0.00" pos="384.91" reason="speedGain" leaderGap="2.50" leaderSecureGap="0.00" followerGap="2.50" followerSecureGap="0.00" origLeaderGap="40.01" origLeaderSecureGap="0.00" latGap="None"/>