<additional xmlns:xsi="http://www.w3.org/2001/XMLSchema-instance" xsi:noNamespaceSchemaLocation="http://sumo.dlr.de/xsd/additional_file.xsd">

    <!-- non valid file (missing) -->
    <e1Detector id="E1_01" lane="gneE0_0" pos="27" freq="120.00" vTypes="bus taxi private" friendlyPos="0"/>
    
	<!-- non valid file (dummy) -->
    <e1Detector id="E1_02" lane="gneE0_0" pos="30" freq="120.00" file="%%%$$$%%%" vTypes="bus taxi private" friendlyPos="0"/>
	
    <!-- valid file (empty) -->
    <e1Detector id="E1_03" lane="gneE0_0" pos="33" freq="120.00" file="" vTypes="bus taxi private" friendlyPos="0"/>
    
    <!-- valid file (duplicated) -->
    <e1Detector id="E1_04" lane="gneE0_0" pos="36" freq="120.00" file="fileA.txt" vTypes="bus taxi private" friendlyPos="0"/>
    
    <!-- valid file -->
    <e1Detector id="E1_05" lane="gneE0_0" pos="39" freq="120.00" file="fileA.txt" vTypes="bus taxi private" friendlyPos="0"/>
    
</additional>
