# Format matches Extraction version: V6.5 
# <?xml version="1.0" encoding="UTF-8"?>
# 
# <!-- generated on Mon Dec  2 14:09:08 2019 by Eclipse SUMO netconvert Version v1_3_1+1219-1be072e
# This data file and the accompanying materials
# are made available under the terms of the Eclipse Public License v2.0
# which accompanies this distribution, and is available at
# http://www.eclipse.org/legal/epl-v20.html
# SPDX-License-Identifier: EPL-2.0
# -->
# 
# <configuration xmlns:xsi="http://www.w3.org/2001/XMLSchema-instance" xsi:noNamespaceSchemaLocation="http://sumo.dlr.de/xsd/netconvertConfiguration.xsd">
# 
#     <input>
#         <osm-files value="osm.xml"/>
#     </input>
# 
#     <output>
#         <write-license value="true"/>
#         <output-file value="net.net.xml"/>
#         <dlr-navteq-output value="elmar_output"/>
#         <dlr-navteq.precision value="2"/>
#         <output.street-names value="true"/>
#         <output.original-names value="true"/>
#     </output>
# 
#     <projection>
#         <proj.utm value="true"/>
#     </projection>
# 
#     <processing>
#         <numerical-ids value="true"/>
#         <reserved-ids value="edge_ids.txt"/>
#         <geometry.remove value="true"/>
#         <roundabouts.guess value="true"/>
#     </processing>
# 
#     <tls_building>
#         <tls.discard-simple value="true"/>
#         <tls.join value="true"/>
#         <tls.guess-signals value="true"/>
#     </tls_building>
# 
#     <ramp_guessing>
#         <ramps.guess value="true"/>
#     </ramp_guessing>
# 
#     <junctions>
#         <junctions.join value="true"/>
#     </junctions>
# 
#     <formats>
#         <osm.all-attributes value="true"/>
#     </formats>
# 
#     <report>
#         <verbose value="true"/>
#         <xml-validation value="never"/>
#         <aggregate-warnings value="5"/>
#     </report>
# 
# </configuration>
# 
#
# LINK_ID	NODE_ID_FROM	NODE_ID_TO	BETWEEN_NODE_ID	LENGTH	VEHICLE_TYPE	FORM_OF_WAY	BRUNNEL_TYPE	FUNCTIONAL_ROAD_CLASS	SPEED_CATEGORY	NUMBER_OF_LANES	SPEED_LIMIT	SPEED_RESTRICTION	NAME_ID1_REGIONAL	NAME_ID2_LOCAL	HOUSENUMBERS_RIGHT	HOUSENUMBERS_LEFT	ZIP_CODE	AREA_ID	SUBAREA_ID	THROUGH_TRAFFIC	SPECIAL_RESTRICTIONS	EXTENDED_NUMBER_OF_LANES	ISRAMP	CONNECTION
-115227682	294830953	1302814166	-115227682	212.40	000000010011	14	-1	4	7	11	30	20	-1	-1	-1	-1	-1	-1	-1	1	-1	-1	-1	0	
-135777011	2165987556	456893959	-135777011	266.35	011111111111	3	-1	3	6	11	50	50	-1	0	-1	-1	12489	-1	-1	1	-1	-1	-1	0	
-141968853	301292499	473482356	-141968853	298.20	011111111111	3	-1	3	6	11	50	50	2	1	-1	-1	12487	-1	-1	1	-1	-1	-1	0	
-143308484	1568241276	1568241303	-1	51.88	011111111111	3	-1	4	7	11	30	30	-1	3	-1	-1	12524	-1	-1	1	-1	-1	-1	0	
-174657432	1853142980	4167993272	-1	5.54	000000010011	14	-1	4	7	11	30	20	-1	-1	-1	-1	-1	-1	-1	1	-1	-1	-1	0	
-180239842	1906766930	1906766909	-180239842	319.75	011111111111	3	-1	1	6	22	50	50	-1	4	-1	-1	12487	-1	-1	1	-1	-1	-1	0	
-190083616	3246050909	280095054	-190083616	94.51	011111111111	3	-1	3	6	11	50	50	-1	5	-1	-1	12524	-1	-1	1	-1	-1	-1	0	
-190083622	2007005093	2007005089	-1	31.66	000000010011	14	-1	4	7	11	30	20	-1	-1	-1	-1	-1	-1	-1	1	-1	-1	-1	0	
-206579061	2165987550	2007005083	-1	28.59	011111111111	3	-1	3	6	11	50	50	-1	0	-1	-1	12489	-1	-1	1	-1	-1	-1	0	
-212458170	4167993271	2223042915	-1	13.88	000000010011	14	-1	4	7	11	30	20	-1	-1	-1	-1	-1	-1	-1	1	-1	-1	-1	0	
-225232900	2340420372	2340420373	-1	12.56	000000010011	14	-1	4	7	11	30	20	-1	-1	-1	-1	-1	-1	-1	1	-1	-1	-1	0	
-257131031	2627346864	2627346865	-1	36.00	000000010011	14	-1	4	7	11	30	20	-1	-1	-1	-1	-1	-1	-1	1	-1	-1	-1	0	
-26816553	1302814166	294830953	-26816553	212.40	000000010011	14	-1	4	7	11	30	20	-1	-1	-1	-1	-1	-1	-1	1	-1	-1	-1	0	
-26843133	1560223633	294169339	-1	11.81	000000010011	14	-1	4	7	11	30	20	-1	-1	-1	-1	-1	-1	-1	1	-1	-1	-1	0	
-283317455	4167993265	3246050909	-283317455	109.34	011111111111	3	-1	3	6	11	50	50	-1	5	-1	-1	12489	-1	-1	1	-1	-1	-1	0	
-334170244	1568241285	3412579225	-1	75.66	011111111111	3	-1	4	7	11	30	30	-1	6	-1	-1	12524	-1	-1	1	-1	-1	-1	0	
-412814181	2223009465	2223009099	-1	35.86	000000010011	14	-1	4	7	11	30	20	-1	-1	-1	-1	-1	-1	-1	1	-1	-1	-1	0	
-47765615	607601659	607601623	-47765615	147.04	000000010011	14	-1	4	7	11	30	20	-1	-1	-1	-1	-1	-1	-1	1	-1	-1	-1	0	
-47770431	607637982	607638014	-47770431	51.82	000000010011	14	-1	4	7	11	30	20	-1	-1	-1	-1	-1	-1	-1	1	-1	-1	-1	0	
-69923147	2008877431	835806371	-69923147	1100.31	011111111111	3	-1	4	7	11	30	20	-1	-1	-1	-1	-1	-1	-1	1	-1	-1	-1	0	
-71595976	851572712	1560223615	-71595976	68.73	000000010011	14	-1	4	7	11	30	20	-1	7	-1	-1	12489	-1	-1	1	-1	-1	-1	0	
-71595991	851572712	851572782	-1	30.17	011111111111	3	-1	4	7	11	30	20	-1	-1	-1	-1	-1	-1	-1	1	-1	-1	-1	0	
-71960748	1935182239	855359022	-71960748	258.99	000000010011	14	-1	4	7	11	30	20	-1	-1	-1	-1	-1	-1	-1	1	-1	-1	-1	0	
114024900	4167993264	1292264836	114024900	63.70	000000010011	14	-1	4	7	11	30	30	-1	8	-1	-1	-1	-1	-1	1	-1	-1	-1	0	
114024901	1292264836	1292264851	114024901	144.51	000000010011	14	-1	4	7	11	30	30	-1	8	-1	-1	-1	-1	-1	1	-1	-1	-1	0	
135777011	456893959	2165987556	135777011	266.35	011111111111	3	-1	3	6	11	50	50	-1	0	-1	-1	12489	-1	-1	1	-1	-1	-1	0	
141968853	473482356	301292499	141968853	298.20	011111111111	3	-1	3	6	11	50	50	2	1	-1	-1	12487	-1	-1	1	-1	-1	-1	0	
142575745	1560223575	851572317	142575745	41.17	000000000011	3	-1	4	8	11	10	10	-1	-1	-1	-1	-1	-1	-1	1	-1	-1	-1	0	
143308484	1568241303	1568241276	-1	51.88	011111111111	3	-1	4	7	11	30	30	-1	3	-1	-1	12524	-1	-1	1	-1	-1	-1	0	
146511467	260479469	2165987553	146511467	287.49	011111111100	10	-1	0	5	22	70	60	-1	-1	-1	-1	-1	-1	-1	1	-1	-1	-1	0	
16942869	1906766909	4167993266	16942869	105.58	011111111111	3	-1	1	6	32	50	50	-1	4	-1	-1	12487	-1	-1	1	-1	-1	-1	0	
174657432	4167993272	1853142980	-1	5.54	000000010011	14	-1	4	7	11	30	20	-1	-1	-1	-1	-1	-1	-1	1	-1	-1	-1	0	
180239835	175648134	1906766897	-1	32.51	000000000011	3	-1	4	8	11	10	10	-1	-1	-1	-1	-1	-1	-1	1	-1	-1	-1	0	
180239842	1906766909	1906766930	180239842	319.75	011111111111	3	-1	1	6	22	50	50	-1	4	-1	-1	12487	-1	-1	1	-1	-1	-1	0	
180239847	4167993266	1906766909	-1	103.63	011111111111	3	-1	1	6	22	50	50	-1	4	-1	-1	12487	-1	-1	1	-1	-1	-1	0	
183076346	175649033	175648134	183076346	417.88	000000000011	3	-1	4	8	11	10	10	-1	9	-1	-1	12487	-1	-1	1	-1	-1	-1	0	
183156389	1935182239	1935182227	183156389	282.72	000000000011	3	-1	4	8	11	10	10	-1	-1	-1	-1	-1	-1	-1	1	-1	-1	-1	0	
190083616	280095054	3246050909	190083616	94.51	011111111111	3	-1	3	6	11	50	50	-1	5	-1	-1	12524	-1	-1	1	-1	-1	-1	0	
190083622	2007005089	2007005093	-1	31.66	000000010011	14	-1	4	7	11	30	20	-1	-1	-1	-1	-1	-1	-1	1	-1	-1	-1	0	
206579057	2165987554	4167993273	206579057	82.31	011111111111	3	-1	3	6	32	50	50	2	1	-1	-1	12487	-1	-1	1	-1	-1	-1	0	
206579061	2007005083	2165987550	-1	28.59	011111111111	3	-1	3	6	11	50	50	-1	0	-1	-1	12489	-1	-1	1	-1	-1	-1	0	
212458170	2223042915	4167993271	-1	13.88	000000010011	14	-1	4	7	11	30	20	-1	-1	-1	-1	-1	-1	-1	1	-1	-1	-1	0	
213883651	2235207713	2235207704	-1	4.49	000000000001	15	-1	4	8	11	10	5	-1	-1	-1	-1	-1	-1	-1	1	-1	-1	-1	0	
213883655	2235207704	2437417326	213883655	3.96	000000000001	15	-1	4	8	11	10	10	-1	-1	-1	-1	-1	-1	-1	1	-1	-1	-1	0	
213883661	2235207711	2235207713	-1	4.46	000000000001	15	-1	4	8	11	10	10	-1	-1	-1	-1	-1	-1	-1	1	-1	-1	-1	0	
224769559	4167993266	1906766898	-1	87.34	011111111111	3	-1	1	6	22	50	50	-1	4	-1	-1	12489	-1	-1	1	-1	-1	-1	0	
224769565	1906766897	4167993265	224769565	445.21	000000000011	3	-1	4	8	11	10	10	-1	-1	-1	-1	-1	-1	-1	1	-1	-1	-1	0	
225232900	2340420373	2340420372	-1	12.56	000000010011	14	-1	4	7	11	30	20	-1	-1	-1	-1	-1	-1	-1	1	-1	-1	-1	0	
22762377	267282985	260479469	22762377	92.40	011111111100	3	-1	0	4	53	90	80	10	-1	-1	-1	-1	-1	-1	1	-1	-1	-1	0	
25382187	32266901	267282985	25382187	440.04	011111111100	3	-1	0	4	32	90	80	10	-1	-1	-1	-1	-1	-1	1	-1	-1	-1	0	
257131031	2627346865	2627346864	-1	36.00	000000010011	14	-1	4	7	11	30	20	-1	-1	-1	-1	-1	-1	-1	1	-1	-1	-1	0	
26816541	294168710	294168098	26816541	131.77	000000010011	14	-1	4	7	11	30	20	-1	-1	-1	-1	-1	-1	-1	1	-1	-1	-1	0	
26843133	294169339	1560223633	-1	11.81	000000010011	14	-1	4	7	11	30	20	-1	-1	-1	-1	-1	-1	-1	1	-1	-1	-1	0	
283307506	4167993266	175648134	-1	30.62	000000000011	3	-1	4	8	11	10	10	-1	-1	-1	-1	-1	-1	-1	1	-1	-1	-1	0	
292525973	2960840891	32266899	292525973	468.22	011111111100	3	-1	0	4	32	90	80	10	-1	-1	-1	-1	-1	-1	1	-1	-1	-1	0	
292525975	1597984543	2960840891	292525975	120.31	011111111100	3	-1	0	4	43	90	80	10	-1	-1	-1	-1	-1	-1	1	-1	-1	-1	0	
292525978	260479469	32266926	292525978	327.48	011111111100	3	-1	0	4	32	90	80	10	-1	-1	-1	-1	-1	-1	1	-1	-1	-1	0	
318210395	3246050909	4167993265	318210395	109.34	011111111111	3	-1	3	6	11	50	50	-1	5	-1	-1	12524	-1	-1	1	-1	-1	-1	0	
319580807	1906766917	3260077364	319580807	46.49	000000000011	3	-1	4	8	11	10	10	-1	-1	-1	-1	-1	-1	-1	1	-1	-1	-1	0	
334170244	3412579225	1568241285	-1	75.66	011111111111	3	-1	4	7	11	30	30	-1	6	-1	-1	12524	-1	-1	1	-1	-1	-1	0	
412814181	2223009099	2223009465	-1	35.86	000000010011	14	-1	4	7	11	30	20	-1	-1	-1	-1	-1	-1	-1	1	-1	-1	-1	0	
415693098	3246050909	4167993261	-1	9.62	000000000001	15	-1	4	8	11	10	10	-1	-1	-1	-1	-1	-1	-1	1	-1	-1	-1	0	
415852811	4167993263	4166809524	-1	5.34	000000000001	15	-1	4	8	11	10	5	-1	-1	-1	-1	-1	-1	-1	1	-1	-1	-1	0	
415852812	4167993262	4167993263	-1	1.31	000000000001	15	-1	4	8	11	10	10	-1	-1	-1	-1	-1	-1	-1	1	-1	-1	-1	0	
415852813	4167993261	4167993262	-1	6.20	000000000001	15	-1	4	8	11	10	5	-1	-1	-1	-1	-1	-1	-1	1	-1	-1	-1	0	
415852814	1292264851	1292264836	415852814	144.51	000000010011	14	-1	4	7	11	30	30	-1	8	-1	-1	-1	-1	-1	1	-1	-1	-1	0	
415852815	1292264836	4167993264	415852815	63.70	000000010011	14	-1	4	7	11	30	30	-1	8	-1	-1	-1	-1	-1	1	-1	-1	-1	0	
415852816	1292264842	1292264836	415852816	103.63	000000010011	14	-1	4	7	11	30	30	-1	8	-1	-1	-1	-1	-1	1	-1	-1	-1	0	
415852817	1560223615	1560223591	-1	113.86	011111111111	3	-1	3	6	11	50	50	-1	11	-1	-1	12489	-1	-1	1	-1	-1	-1	0	
415852818	851572284	1560223615	-1	131.18	011111111111	3	-1	3	6	11	50	50	-1	11	-1	-1	12489	-1	-1	1	-1	-1	-1	0	
415852819	4167993267	851572284	-1	65.92	011111111111	3	-1	3	6	11	50	50	-1	11	-1	-1	12489	-1	-1	1	-1	-1	-1	0	
415852820	607601623	1560223905	-1	60.32	011111111111	3	-1	3	6	11	50	50	-1	12	-1	-1	12489	-1	-1	1	-1	-1	-1	0	
415852821	1560223943	607601623	415852821	54.16	011111111111	3	-1	3	6	11	50	50	-1	12	-1	-1	12489	-1	-1	1	-1	-1	-1	0	
415852822	1560224080	1560224322	415852822	135.49	011111111111	3	-1	3	6	11	50	50	-1	13	-1	-1	12489	-1	-1	1	-1	-1	-1	0	
415852823	1560223905	1560224080	415852823	88.55	011111111111	3	-1	3	6	11	50	50	-1	13	-1	-1	12489	-1	-1	1	-1	-1	-1	0	
415852824	1599958752	1560223905	-1	9.37	011111111111	3	-1	3	6	11	50	50	-1	13	-1	-1	12489	-1	-1	1	-1	-1	-1	0	
415852825	1560223834	1599958752	-1	30.36	011111111111	3	-1	3	6	11	50	50	-1	13	-1	-1	12489	-1	-1	1	-1	-1	-1	0	
415852826	4167993268	1560223834	415852826	49.46	011111111111	3	-1	3	6	11	50	50	-1	13	-1	-1	12489	-1	-1	1	-1	-1	-1	0	
415852827	2007005081	1560223484	-1	91.50	011111111111	3	-1	4	6	11	50	50	-1	14	-1	-1	12489	-1	-1	1	-1	-1	-1	0	
415852828	1560223591	2007005081	-1	25.39	011111111111	3	-1	4	6	11	50	50	-1	14	-1	-1	12489	-1	-1	1	-1	-1	-1	0	
415852829	2007005091	1560223591	-1	29.48	011111111111	3	-1	4	6	11	50	50	-1	14	-1	-1	12489	-1	-1	1	-1	-1	-1	0	
415852830	4167993268	2007005091	415852830	51.34	011111111111	3	-1	4	6	11	50	50	-1	14	-1	-1	12489	-1	-1	1	-1	-1	-1	0	
415852831	1599958758	1560224080	-1	15.33	000000010011	14	-1	4	7	11	30	20	-1	-1	-1	-1	-1	-1	-1	1	-1	-1	-1	0	
415852832	1560223809	1599958758	415852832	254.12	000000010011	14	-1	4	7	11	30	20	-1	-1	-1	-1	-1	-1	-1	1	-1	-1	-1	0	
415852833	1599958746	1560223834	-1	14.57	000000010011	14	-1	4	7	11	30	20	-1	-1	-1	-1	-1	-1	-1	1	-1	-1	-1	0	
415852834	1560223809	1599958746	-1	129.86	000000010011	14	-1	4	7	11	30	20	-1	-1	-1	-1	-1	-1	-1	1	-1	-1	-1	0	
415852835	1560223789	1560223809	-1	47.85	000000010011	14	-1	4	7	11	30	20	-1	-1	-1	-1	-1	-1	-1	1	-1	-1	-1	0	
415852836	1560223943	664166095	415852836	206.74	011111111111	3	-1	3	6	11	50	50	-1	7	-1	-1	12489	-1	-1	1	-1	-1	-1	0	
415852837	4167993269	1560223943	-1	90.88	011111111111	3	-1	3	6	11	50	50	-1	7	-1	-1	12489	-1	-1	1	-1	-1	-1	0	
415852838	1560223615	4167993269	-1	79.51	011111111111	3	-1	3	6	11	50	50	-1	7	-1	-1	12489	-1	-1	1	-1	-1	-1	0	
415852839	1568241285	1568241281	-1	58.17	011111111111	3	-1	4	7	11	30	30	-1	15	-1	-1	12524	-1	-1	1	-1	-1	-1	0	
415852840	1568241303	1568241285	-1	108.16	011111111111	3	-1	4	7	11	30	30	-1	15	-1	-1	12524	-1	-1	1	-1	-1	-1	0	
415852841	260702833	1568241303	-1	29.67	011111111111	3	-1	4	7	11	30	30	-1	15	-1	-1	12524	-1	-1	1	-1	-1	-1	0	
415852842	1568241289	1568241232	415852842	110.84	000000010011	14	-1	4	8	11	10	10	-1	-1	-1	-1	-1	-1	-1	1	-1	-1	-1	0	
415852843	1653119660	1568241289	415852843	55.48	000000010011	14	-1	4	8	11	10	10	-1	-1	-1	-1	-1	-1	-1	1	-1	-1	-1	0	
415852844	1599958749	1599958758	415852844	97.41	000000010011	14	-1	4	7	11	30	20	-1	-1	-1	-1	-1	-1	-1	1	-1	-1	-1	0	
415852845	1599958746	1599958749	-1	30.38	000000010011	14	-1	4	7	11	30	20	-1	-1	-1	-1	-1	-1	-1	1	-1	-1	-1	0	
415852846	1560223484	1906766898	-1	93.41	011111111111	3	-1	1	6	22	50	50	-1	4	-1	-1	12489	-1	-1	1	-1	-1	-1	0	
415852847	1560223468	1560223484	415852847	189.45	011111111111	3	-1	1	6	22	50	50	-1	4	-1	-1	12489	-1	-1	1	-1	-1	-1	0	
415852848	4167993265	59992997	415852848	73.18	011111111111	3	-1	2	6	11	50	50	-1	5	-1	-1	12489	-1	-1	1	-1	-1	-1	0	
415852849	2007005089	2007005087	-1	29.32	000000010011	14	-1	4	7	11	30	20	-1	-1	-1	-1	-1	-1	-1	1	-1	-1	-1	0	
415852850	2627346865	2007005089	-1	73.17	000000010011	14	-1	4	7	11	30	20	-1	-1	-1	-1	-1	-1	-1	1	-1	-1	-1	0	
415852851	2007005091	2627346865	-1	79.69	000000010011	14	-1	4	7	11	30	20	-1	-1	-1	-1	-1	-1	-1	1	-1	-1	-1	0	
415852852	2340420373	2007005083	-1	36.77	000000010011	14	-1	4	7	11	30	20	-1	-1	-1	-1	-1	-1	-1	1	-1	-1	-1	0	
415852853	2007005081	2340420373	415852853	195.62	000000010011	14	-1	4	7	11	30	20	-1	-1	-1	-1	-1	-1	-1	1	-1	-1	-1	0	
415852854	2007005087	2165987550	-1	6.99	011111111111	3	-1	3	6	11	50	50	-1	0	-1	-1	12489	-1	-1	1	-1	-1	-1	0	
415852855	4167993273	2007005087	415852855	55.75	011111111111	3	-1	3	6	11	50	50	-1	0	-1	-1	12489	-1	-1	1	-1	-1	-1	0	
415852856	1560223789	2165987556	-1	30.30	011111111111	3	-1	3	6	11	50	50	-1	0	-1	-1	12489	-1	-1	1	-1	-1	-1	0	
415852857	3260077364	4167993266	415852857	60.31	011111111111	3	-1	3	6	22	50	50	-1	0	-1	-1	12489	-1	-1	1	-1	-1	-1	0	
415852858	2007005083	3260077364	-1	17.91	011111111111	3	-1	3	6	22	50	50	-1	0	-1	-1	12489	-1	-1	1	-1	-1	-1	0	
415852859	2223009099	2223009101	415852859	106.36	000000010011	14	-1	4	7	11	30	20	-1	-1	-1	-1	-1	-1	-1	1	-1	-1	-1	0	
415852860	4167993271	2223009099	415852860	106.50	000000010011	14	-1	4	7	11	30	20	-1	-1	-1	-1	-1	-1	-1	1	-1	-1	-1	0	
415852861	2223041260	4167993271	-1	39.19	000000010011	14	-1	4	7	11	30	20	-1	-1	-1	-1	-1	-1	-1	1	-1	-1	-1	0	
415852862	2223007259	2223041260	415852862	42.29	000000010011	14	-1	4	7	11	30	20	-1	-1	-1	-1	-1	-1	-1	1	-1	-1	-1	0	
415852863	2223042915	2223041260	415852863	44.79	000000010011	14	-1	4	7	11	30	20	-1	-1	-1	-1	-1	-1	-1	1	-1	-1	-1	0	
415852864	2223009465	2223042915	415852864	90.18	000000010011	14	-1	4	7	11	30	20	-1	-1	-1	-1	-1	-1	-1	1	-1	-1	-1	0	
415852865	4167993271	2223009465	-1	75.22	000000010011	14	-1	4	7	11	30	20	-1	-1	-1	-1	-1	-1	-1	1	-1	-1	-1	0	
415852866	4167993264	4167993267	415852866	52.22	011111111111	3	-1	2	6	11	50	50	-1	5	-1	-1	12489	-1	-1	1	-1	-1	-1	0	
415852867	59992997	4167993264	-1	59.16	011111111111	3	-1	2	6	11	50	50	-1	5	-1	-1	12489	-1	-1	1	-1	-1	-1	0	
415852868	4167993272	283018514	-1	72.54	000000010011	14	-1	4	7	11	30	20	-1	-1	-1	-1	-1	-1	-1	1	-1	-1	-1	0	
415852869	283018514	4167993272	415852869	92.78	000000010011	14	-1	4	7	11	30	20	-1	-1	-1	-1	-1	-1	-1	1	-1	-1	-1	0	
415852870	294168710	56231597	415852870	62.75	000000010011	14	-1	4	7	11	30	20	-1	-1	-1	-1	-1	-1	-1	1	-1	-1	-1	0	
415852871	294168098	294168710	-1	29.10	000000010011	14	-1	4	7	11	30	20	-1	-1	-1	-1	-1	-1	-1	1	-1	-1	-1	0	
415852872	1302814166	294168098	-1	13.17	000000010011	14	-1	4	7	11	30	20	-1	-1	-1	-1	-1	-1	-1	1	-1	-1	-1	0	
415852873	294169339	1302814166	415852873	17.75	000000010011	14	-1	4	7	11	30	20	-1	-1	-1	-1	-1	-1	-1	1	-1	-1	-1	0	
415852874	4167993267	294169339	-1	51.93	000000010011	14	-1	4	7	11	30	20	-1	-1	-1	-1	-1	-1	-1	1	-1	-1	-1	0	
415852875	4167993273	1560223789	415852875	42.94	011111111111	3	-1	3	6	11	50	50	-1	0	-1	-1	12489	-1	-1	1	-1	-1	-1	0	
415852876	4057899374	1568241289	-1	47.58	000000010011	14	-1	4	8	11	10	10	-1	-1	-1	-1	-1	-1	-1	1	-1	-1	-1	0	
415852877	4167993272	4057899374	-1	13.92	000000010011	14	-1	4	8	11	10	10	-1	-1	-1	-1	-1	-1	-1	1	-1	-1	-1	0	
415852878	1292264836	1292264842	415852878	103.63	000000010011	14	-1	4	7	11	30	30	-1	8	-1	-1	-1	-1	-1	1	-1	-1	-1	0	
415852879	1560223591	1560223615	-1	113.86	011111111111	3	-1	3	6	11	50	50	-1	11	-1	-1	12489	-1	-1	1	-1	-1	-1	0	
415852880	1560223615	851572284	-1	131.18	011111111111	3	-1	3	6	11	50	50	-1	11	-1	-1	12489	-1	-1	1	-1	-1	-1	0	
415852881	851572284	4167993267	-1	65.92	011111111111	3	-1	3	6	11	50	50	-1	11	-1	-1	12489	-1	-1	1	-1	-1	-1	0	
415852882	1560223905	607601623	-1	60.32	011111111111	3	-1	3	6	11	50	50	-1	12	-1	-1	12489	-1	-1	1	-1	-1	-1	0	
415852883	607601623	1560223943	415852883	54.16	011111111111	3	-1	3	6	11	50	50	-1	12	-1	-1	12489	-1	-1	1	-1	-1	-1	0	
415852884	1560224322	1560224080	415852884	135.49	011111111111	3	-1	3	6	11	50	50	-1	13	-1	-1	12489	-1	-1	1	-1	-1	-1	0	
415852885	1560224080	1560223905	415852885	88.55	011111111111	3	-1	3	6	11	50	50	-1	13	-1	-1	12489	-1	-1	1	-1	-1	-1	0	
415852886	1560223905	1599958752	-1	9.37	011111111111	3	-1	3	6	11	50	50	-1	13	-1	-1	12489	-1	-1	1	-1	-1	-1	0	
415852887	1599958752	1560223834	-1	30.36	011111111111	3	-1	3	6	11	50	50	-1	13	-1	-1	12489	-1	-1	1	-1	-1	-1	0	
415852888	1560223834	4167993268	415852888	49.46	011111111111	3	-1	3	6	11	50	50	-1	13	-1	-1	12489	-1	-1	1	-1	-1	-1	0	
415852889	1560223484	2007005081	-1	91.50	011111111111	3	-1	4	6	11	50	50	-1	14	-1	-1	12489	-1	-1	1	-1	-1	-1	0	
415852890	2007005081	1560223591	-1	25.39	011111111111	3	-1	4	6	11	50	50	-1	14	-1	-1	12489	-1	-1	1	-1	-1	-1	0	
415852891	1560223591	2007005091	-1	29.48	011111111111	3	-1	4	6	11	50	50	-1	14	-1	-1	12489	-1	-1	1	-1	-1	-1	0	
415852892	2007005091	4167993268	415852892	51.34	011111111111	3	-1	4	6	11	50	50	-1	14	-1	-1	12489	-1	-1	1	-1	-1	-1	0	
415852893	1560224080	1599958758	-1	15.33	000000010011	14	-1	4	7	11	30	20	-1	-1	-1	-1	-1	-1	-1	1	-1	-1	-1	0	
415852894	1599958758	1560223809	415852894	254.12	000000010011	14	-1	4	7	11	30	20	-1	-1	-1	-1	-1	-1	-1	1	-1	-1	-1	0	
415852895	1560223834	1599958746	-1	14.57	000000010011	14	-1	4	7	11	30	20	-1	-1	-1	-1	-1	-1	-1	1	-1	-1	-1	0	
415852896	1599958746	1560223809	-1	129.86	000000010011	14	-1	4	7	11	30	20	-1	-1	-1	-1	-1	-1	-1	1	-1	-1	-1	0	
415852897	1560223809	1560223789	-1	47.85	000000010011	14	-1	4	7	11	30	20	-1	-1	-1	-1	-1	-1	-1	1	-1	-1	-1	0	
415852898	4167993270	1392924660	415852898	52.36	011111111111	3	-1	3	6	22	50	50	2	16	-1	-1	12489	-1	-1	1	-1	-1	-1	0	
415852899	1392924660	4167993269	415852899	140.58	011111111111	3	-1	3	6	22	50	50	2	16	-1	-1	12489	-1	-1	1	-1	-1	-1	0	
415852900	4167993269	4167993268	-1	115.99	011111111111	3	-1	3	6	22	50	50	2	16	-1	-1	12489	-1	-1	1	-1	-1	-1	0	
415852901	4167993268	4167993273	415852901	198.13	011111111111	3	-1	3	6	22	50	50	2	16	-1	-1	12489	-1	-1	1	-1	-1	-1	0	
415852902	4167993270	57343487	415852902	707.54	011111111111	3	-1	2	6	22	50	50	2	16	-1	-1	12489	-1	-1	1	-1	-1	-1	0	
415852903	38918157	846231372	415852903	633.53	011111111111	3	-1	2	6	22	50	50	2	16	-1	-1	12489	-1	-1	1	-1	-1	-1	0	
415852904	846231372	4167993270	415852904	67.16	011111111111	3	-1	2	6	22	50	50	2	16	-1	-1	12489	-1	-1	1	-1	-1	-1	0	
415852905	664166095	1560223943	415852905	206.74	011111111111	3	-1	3	6	11	50	50	-1	7	-1	-1	12489	-1	-1	1	-1	-1	-1	0	
415852906	1560223943	4167993269	-1	90.88	011111111111	3	-1	3	6	11	50	50	-1	7	-1	-1	12489	-1	-1	1	-1	-1	-1	0	
415852907	4167993269	1560223615	-1	79.51	011111111111	3	-1	3	6	11	50	50	-1	7	-1	-1	12489	-1	-1	1	-1	-1	-1	0	
415852908	4167993270	4167993267	415852908	86.66	011111111111	3	-1	2	6	22	50	50	-1	5	-1	-1	12489	-1	-1	1	-1	-1	-1	0	
415852909	4167993267	4167993270	415852909	88.95	011111111111	3	-1	2	6	22	50	50	-1	5	-1	-1	12489	-1	-1	1	-1	-1	-1	0	
415852910	1568241281	1568241285	-1	58.17	011111111111	3	-1	4	7	11	30	30	-1	15	-1	-1	12524	-1	-1	1	-1	-1	-1	0	
415852911	1568241285	1568241303	-1	108.16	011111111111	3	-1	4	7	11	30	30	-1	15	-1	-1	12524	-1	-1	1	-1	-1	-1	0	
415852912	1568241303	260702833	-1	29.67	011111111111	3	-1	4	7	11	30	30	-1	15	-1	-1	12524	-1	-1	1	-1	-1	-1	0	
415852913	1568241232	1568241289	415852913	110.84	000000010011	14	-1	4	8	11	10	10	-1	-1	-1	-1	-1	-1	-1	1	-1	-1	-1	0	
415852914	1568241289	1653119660	415852914	55.48	000000010011	14	-1	4	8	11	10	10	-1	-1	-1	-1	-1	-1	-1	1	-1	-1	-1	0	
415852915	1599958752	1599958749	-1	14.98	000000000001	15	-1	4	8	11	10	10	-1	-1	-1	-1	-1	-1	-1	1	-1	-1	-1	0	
415852916	1599958749	1560223224	-1	10.41	000000000001	15	-1	4	8	11	10	10	-1	-1	-1	-1	-1	-1	-1	1	-1	-1	-1	0	
415852917	1599958758	1599958749	415852917	97.41	000000010011	14	-1	4	7	11	30	20	-1	-1	-1	-1	-1	-1	-1	1	-1	-1	-1	0	
415852918	1599958749	1599958746	-1	30.38	000000010011	14	-1	4	7	11	30	20	-1	-1	-1	-1	-1	-1	-1	1	-1	-1	-1	0	
415852919	1906766898	4167993266	415852919	87.82	011111111111	3	-1	1	6	22	50	50	-1	4	-1	-1	12489	-1	-1	1	-1	-1	-1	0	
415852920	1906766898	1560223484	-1	93.41	011111111111	3	-1	1	6	22	50	50	-1	4	-1	-1	12489	-1	-1	1	-1	-1	-1	0	
415852921	1560223484	1560223468	415852921	189.45	011111111111	3	-1	1	6	22	50	50	-1	4	-1	-1	12489	-1	-1	1	-1	-1	-1	0	
415852922	59992997	4167993265	415852922	73.18	011111111111	3	-1	2	6	32	50	50	-1	5	-1	-1	12489	-1	-1	1	-1	-1	-1	0	
415852923	2007005087	2007005089	-1	29.32	000000010011	14	-1	4	7	11	30	20	-1	-1	-1	-1	-1	-1	-1	1	-1	-1	-1	0	
415852924	2007005089	2627346865	-1	73.17	000000010011	14	-1	4	7	11	30	20	-1	-1	-1	-1	-1	-1	-1	1	-1	-1	-1	0	
415852925	2627346865	2007005091	-1	79.69	000000010011	14	-1	4	7	11	30	20	-1	-1	-1	-1	-1	-1	-1	1	-1	-1	-1	0	
415852926	2007005083	2340420373	-1	36.77	000000010011	14	-1	4	7	11	30	20	-1	-1	-1	-1	-1	-1	-1	1	-1	-1	-1	0	
415852927	2340420373	2007005081	415852927	195.62	000000010011	14	-1	4	7	11	30	20	-1	-1	-1	-1	-1	-1	-1	1	-1	-1	-1	0	
415852928	2165987550	2007005087	-1	6.99	011111111111	3	-1	3	6	22	50	50	-1	0	-1	-1	12489	-1	-1	1	-1	-1	-1	0	
415852929	2007005087	4167993273	415852929	55.75	011111111111	3	-1	3	6	22	50	50	-1	0	-1	-1	12489	-1	-1	1	-1	-1	-1	0	
415852930	2165987556	1560223789	-1	30.30	011111111111	3	-1	3	6	22	50	50	-1	0	-1	-1	12489	-1	-1	1	-1	-1	-1	0	
415852931	1560223789	4167993273	415852931	42.94	011111111111	3	-1	3	6	22	50	50	-1	0	-1	-1	12489	-1	-1	1	-1	-1	-1	0	
415852932	4167993266	3260077364	415852932	60.31	011111111111	3	-1	3	6	11	50	50	-1	0	-1	-1	12489	-1	-1	1	-1	-1	-1	0	
415852933	3260077364	2007005083	-1	17.91	011111111111	3	-1	3	6	11	50	50	-1	0	-1	-1	12489	-1	-1	1	-1	-1	-1	0	
415852934	2223009101	2223009099	415852934	106.36	000000010011	14	-1	4	7	11	30	20	-1	-1	-1	-1	-1	-1	-1	1	-1	-1	-1	0	
415852935	2223009099	4167993271	415852935	106.50	000000010011	14	-1	4	7	11	30	20	-1	-1	-1	-1	-1	-1	-1	1	-1	-1	-1	0	
415852936	4167993271	2223041260	-1	39.19	000000010011	14	-1	4	7	11	30	20	-1	-1	-1	-1	-1	-1	-1	1	-1	-1	-1	0	
415852937	2223041260	2223007259	415852937	42.29	000000010011	14	-1	4	7	11	30	20	-1	-1	-1	-1	-1	-1	-1	1	-1	-1	-1	0	
415852938	2223041260	2223042915	415852938	44.79	000000010011	14	-1	4	7	11	30	20	-1	-1	-1	-1	-1	-1	-1	1	-1	-1	-1	0	
415852939	2223042915	2223009465	415852939	90.18	000000010011	14	-1	4	7	11	30	20	-1	-1	-1	-1	-1	-1	-1	1	-1	-1	-1	0	
415852940	2223009465	4167993271	-1	75.22	000000010011	14	-1	4	7	11	30	20	-1	-1	-1	-1	-1	-1	-1	1	-1	-1	-1	0	
415852941	4167993267	4167993264	415852941	52.22	011111111111	3	-1	2	6	11	50	50	-1	5	-1	-1	12489	-1	-1	1	-1	-1	-1	0	
415852942	4167993264	59992997	-1	59.16	011111111111	3	-1	2	6	11	50	50	-1	5	-1	-1	12489	-1	-1	1	-1	-1	-1	0	
415852943	1906766897	4167993266	-1	30.26	000000000011	3	-1	4	8	11	10	10	-1	-1	-1	-1	-1	-1	-1	1	-1	-1	-1	0	
415852944	1906766917	4167993266	415852944	54.27	000000000011	3	-1	4	8	11	10	10	-1	-1	-1	-1	-1	-1	-1	1	-1	-1	-1	0	
415852945	1645798498	1935182227	-1	6.11	000000000011	3	-1	4	8	11	10	10	-1	-1	-1	-1	-1	-1	-1	1	-1	-1	-1	0	
415852946	1935182227	2235207711	415852946	228.60	000000000011	3	-1	4	8	11	10	10	-1	-1	-1	-1	-1	-1	-1	1	-1	-1	-1	0	
415852947	2235207711	1906766917	415852947	365.91	000000000011	3	-1	4	8	11	10	10	-1	-1	-1	-1	-1	-1	-1	1	-1	-1	-1	0	
415852948	283018514	4167993272	-1	72.54	000000010011	14	-1	4	7	11	30	20	-1	-1	-1	-1	-1	-1	-1	1	-1	-1	-1	0	
415852949	4167993272	283018514	415852949	92.78	000000010011	14	-1	4	7	11	30	20	-1	-1	-1	-1	-1	-1	-1	1	-1	-1	-1	0	
415852950	56231597	294168710	415852950	62.75	000000010011	14	-1	4	7	11	30	20	-1	-1	-1	-1	-1	-1	-1	1	-1	-1	-1	0	
415852951	294168710	294168098	-1	29.10	000000010011	14	-1	4	7	11	30	20	-1	-1	-1	-1	-1	-1	-1	1	-1	-1	-1	0	
415852952	294168098	1302814166	-1	13.17	000000010011	14	-1	4	7	11	30	20	-1	-1	-1	-1	-1	-1	-1	1	-1	-1	-1	0	
415852953	1302814166	294169339	415852953	17.75	000000010011	14	-1	4	7	11	30	20	-1	-1	-1	-1	-1	-1	-1	1	-1	-1	-1	0	
415852954	294169339	4167993267	-1	51.93	000000010011	14	-1	4	7	11	30	20	-1	-1	-1	-1	-1	-1	-1	1	-1	-1	-1	0	
415852955	1560223468	4167993265	415852955	91.96	011111111111	3	-1	1	6	32	50	50	-1	4	-1	-1	12489	-1	-1	1	-1	-1	-1	0	
415852956	4167993265	3273797696	415852956	129.15	011111111111	3	-1	1	6	22	50	50	-1	4	-1	-1	12489	-1	-1	1	-1	-1	-1	0	
415852957	3273797696	4167993265	415852957	141.01	011111111111	3	-1	1	6	32	50	50	-1	4	-1	-1	12489	-1	-1	1	-1	-1	-1	0	
415852958	4167993265	1560223468	415852958	99.61	011111111111	3	-1	1	6	22	50	50	-1	4	-1	-1	12489	-1	-1	1	-1	-1	-1	0	
415852959	1568241289	4057899374	-1	47.58	000000010011	14	-1	4	8	11	10	10	-1	-1	-1	-1	-1	-1	-1	1	-1	-1	-1	0	
415852960	4057899374	4167993272	-1	13.92	000000010011	14	-1	4	8	11	10	10	-1	-1	-1	-1	-1	-1	-1	1	-1	-1	-1	0	
415852961	4166809525	4057899374	-1	10.89	000000000001	15	-1	4	8	11	10	10	-1	-1	-1	-1	-1	-1	-1	1	-1	-1	-1	0	
415852962	4057899374	4166809524	-1	14.60	000000000001	15	-1	4	8	11	10	10	-1	-1	-1	-1	-1	-1	-1	1	-1	-1	-1	0	
415852963	4167993273	4167993268	415852963	196.55	011111111111	3	-1	3	6	22	50	50	2	16	-1	-1	12489	-1	-1	1	-1	-1	-1	0	
415852964	4167993268	4167993269	415852964	116.04	011111111111	3	-1	3	6	22	50	50	2	16	-1	-1	12489	-1	-1	1	-1	-1	-1	0	
415852965	4167993269	4167993270	415852965	194.37	011111111111	3	-1	3	6	22	50	50	2	16	-1	-1	12489	-1	-1	1	-1	-1	-1	0	
415852966	4167993273	301292499	415852966	106.85	011111111111	3	-1	3	6	22	50	50	2	1	-1	-1	12487	-1	-1	1	-1	-1	-1	0	
415852967	385208394	737286282	415852967	63.65	000000000011	3	-1	4	8	11	10	10	-1	-1	-1	-1	-1	-1	-1	1	-1	-1	-1	0	
415852968	737286282	737286286	-1	17.82	000000000011	3	-1	4	8	11	10	10	-1	-1	-1	-1	-1	-1	-1	1	-1	-1	-1	0	
415852969	737286286	260702781	-1	39.32	000000000011	3	-1	4	8	11	10	10	-1	-1	-1	-1	-1	-1	-1	1	-1	-1	-1	0	
415852970	851572740	851572317	415852970	10.65	000000000011	3	-1	4	8	11	10	10	-1	-1	-1	-1	-1	-1	-1	1	-1	-1	-1	0	
415852971	851572317	851572523	415852971	26.49	000000000011	3	-1	4	8	11	10	10	-1	-1	-1	-1	-1	-1	-1	1	-1	-1	-1	0	
415852972	851572523	1560223575	415852972	68.72	000000000011	3	-1	4	8	11	10	10	-1	-1	-1	-1	-1	-1	-1	1	-1	-1	-1	0	
415852973	1560223575	1560223576	-1	9.58	000000000011	3	-1	4	8	11	10	10	-1	-1	-1	-1	-1	-1	-1	1	-1	-1	-1	0	
415852974	737286282	855357265	415852974	145.59	000000000011	3	-1	4	8	11	10	10	-1	-1	-1	-1	-1	-1	-1	1	-1	-1	-1	0	
415852975	855357265	737286286	-1	78.59	000000000011	3	-1	4	8	11	10	10	-1	-1	-1	-1	-1	-1	-1	1	-1	-1	-1	0	
46150483	301292499	2165987554	-1	30.81	011111111111	3	-1	3	6	22	50	50	2	1	-1	-1	12487	-1	-1	1	-1	-1	-1	0	
47765615	607601623	607601659	47765615	147.04	000000010011	14	-1	4	7	11	30	20	-1	-1	-1	-1	-1	-1	-1	1	-1	-1	-1	0	
47770431	607638014	607637982	47770431	51.82	000000010011	14	-1	4	7	11	30	20	-1	-1	-1	-1	-1	-1	-1	1	-1	-1	-1	0	
47770433	607637982	1392924660	47770433	40.19	000000000011	3	-1	4	8	11	10	10	-1	-1	-1	-1	-1	-1	-1	1	-1	-1	-1	0	
69923147	835806371	2008877431	69923147	1100.31	011111111111	3	-1	4	7	11	30	20	-1	-1	-1	-1	-1	-1	-1	1	-1	-1	-1	0	
70139065	837777441	846231372	70139065	33.83	000000000011	3	-1	4	8	11	10	10	-1	-1	-1	-1	-1	-1	-1	1	-1	-1	-1	0	
71595976	1560223615	851572712	71595976	68.73	000000010011	14	-1	4	7	11	30	20	-1	7	-1	-1	12489	-1	-1	1	-1	-1	-1	0	
71595991	851572782	851572712	-1	30.17	011111111111	3	-1	4	7	11	30	20	-1	-1	-1	-1	-1	-1	-1	1	-1	-1	-1	0	
71596031	851572284	851572523	71596031	11.11	000000000011	3	-1	4	8	11	10	10	-1	-1	-1	-1	-1	-1	-1	1	-1	-1	-1	0	
71960707	855357265	855356052	71960707	24.16	000000000011	3	-1	4	8	11	10	10	-1	-1	-1	-1	-1	-1	-1	1	-1	-1	-1	0	
71960748	855359022	1935182239	71960748	258.99	000000010011	14	-1	4	7	11	30	20	-1	-1	-1	-1	-1	-1	-1	1	-1	-1	-1	0	
