# Format matches Extraction version: V6.5 
# <?xml version="1.0" encoding="UTF-8"?>
# 
# <!-- generated on Mon Dec  2 14:09:08 2019 by Eclipse SUMO netconvert Version v1_3_1+1219-1be072e
# This data file and the accompanying materials
# are made available under the terms of the Eclipse Public License v2.0
# which accompanies this distribution, and is available at
# http://www.eclipse.org/legal/epl-v20.html
# SPDX-License-Identifier: EPL-2.0
# -->
# 
# <configuration xmlns:xsi="http://www.w3.org/2001/XMLSchema-instance" xsi:noNamespaceSchemaLocation="http://sumo.dlr.de/xsd/netconvertConfiguration.xsd">
# 
#     <input>
#         <osm-files value="osm.xml"/>
#     </input>
# 
#     <output>
#         <write-license value="true"/>
#         <output-file value="net.net.xml"/>
#         <dlr-navteq-output value="elmar_output"/>
#         <dlr-navteq.precision value="2"/>
#         <output.street-names value="true"/>
#         <output.original-names value="true"/>
#     </output>
# 
#     <projection>
#         <proj.utm value="true"/>
#     </projection>
# 
#     <processing>
#         <numerical-ids value="true"/>
#         <reserved-ids value="edge_ids.txt"/>
#         <geometry.remove value="true"/>
#         <roundabouts.guess value="true"/>
#     </processing>
# 
#     <tls_building>
#         <tls.discard-simple value="true"/>
#         <tls.join value="true"/>
#         <tls.guess-signals value="true"/>
#     </tls_building>
# 
#     <ramp_guessing>
#         <ramps.guess value="true"/>
#     </ramp_guessing>
# 
#     <junctions>
#         <junctions.join value="true"/>
#     </junctions>
# 
#     <formats>
#         <osm.all-attributes value="true"/>
#     </formats>
# 
#     <report>
#         <verbose value="true"/>
#         <xml-validation value="never"/>
#         <aggregate-warnings value="5"/>
#     </report>
# 
# </configuration>
# 
#
# NAME_ID	PERMANENT_ID_INFO	Name
# [elements] 17
10	0	A 113
8	0	Albert-Einstein-Straße
3	0	Am Glinigk
11	0	Bendemannstraße
9	0	Berliner Mauerweg
1	0	Eisenhutweg
4	0	Ernst-Ruska-Ufer
12	0	Friedrich-Wöhler-Straße
0	0	Hermann-Dorner-Allee
6	0	Iselersteig
13	0	James-Franck-Straße
2	0	L 1081
14	0	North-Willys-Straße
16	0	Rudower Chaussee
7	0	Schwarzschildstraße
5	0	Wegedornstraße
15	0	Zur Rothen Laake
