# Format matches Extraction version: V6.5 
# <?xml version="1.0" encoding="UTF-8"?>
# 
# <!-- generated on 2022-05-13 16:38:10 by Eclipse SUMO netconvert Version v1_13_0+0243-3930482e178
# This data file and the accompanying materials
# are made available under the terms of the Eclipse Public License v2.0
# which accompanies this distribution, and is available at
# http://www.eclipse.org/legal/epl-v20.html
# This file may also be made available under the following Secondary
# Licenses when the conditions for such availability set forth in the Eclipse
# Public License 2.0 are satisfied: GNU General Public License, version 2
# or later which is available at
# https://www.gnu.org/licenses/old-licenses/gpl-2.0-standalone.html
# SPDX-License-Identifier: EPL-2.0 OR GPL-2.0-or-later
# -->
# 
# <configuration xmlns:xsi="http://www.w3.org/2001/XMLSchema-instance" xsi:noNamespaceSchemaLocation="http://sumo.dlr.de/xsd/netconvertConfiguration.xsd">
# 
#     <input>
#         <osm-files value="osm.xml"/>
#     </input>
# 
#     <output>
#         <write-license value="true"/>
#         <output-file value="net.net.xml"/>
#         <dlr-navteq-output value="elmar_output"/>
#         <dlr-navteq.precision value="2"/>
#         <output.street-names value="true"/>
#         <output.original-names value="true"/>
#     </output>
# 
#     <projection>
#         <proj.utm value="true"/>
#     </projection>
# 
#     <processing>
#         <numerical-ids value="true"/>
#         <reserved-ids value="edge_ids.txt"/>
#         <geometry.remove value="true"/>
#         <roundabouts.guess value="true"/>
#     </processing>
# 
#     <tls_building>
#         <tls.discard-simple value="true"/>
#         <tls.join value="true"/>
#         <tls.guess-signals value="true"/>
#     </tls_building>
# 
#     <ramp_guessing>
#         <ramps.guess value="true"/>
#     </ramp_guessing>
# 
#     <junctions>
#         <junctions.join value="true"/>
#     </junctions>
# 
#     <report>
#         <verbose value="true"/>
#         <xml-validation value="never"/>
#     </report>
# 
# </configuration>
# 
#
# NAME_ID	PERMANENT_ID_INFO	Name
# [elements] 19
12	0	A 113
10	0	Albert-Einstein-Straße
3	0	Am Glinigk
13	0	Bendemannstraße
6	0	Berliner Mauerweg
1	0	Eisenhutweg
5	0	Ernst-Ruska-Ufer
14	0	Friedrich-Wöhler-Straße
0	0	Hermann-Dorner-Allee
8	0	Iselersteig
15	0	James-Franck-Straße
2	0	L 1081
16	0	North-Willys-Straße
18	0	Rudower Chaussee
9	0	Schwarzschildstraße
11	0	Teltowkanalbrücke
4	0	Wegedornbrücke
7	0	Wegedornstraße
17	0	Zur Rothen Laake
