<?xml version="1.0" encoding="UTF-8"?>

<!-- generated on Mon Feb 17 15:31:00 2020 by Eclipse SUMO netconvert Version v1_5_0+0130-ceb0a01
This data file and the accompanying materials
are made available under the terms of the Eclipse Public License v2.0
which accompanies this distribution, and is available at
http://www.eclipse.org/legal/epl-v20.html
SPDX-License-Identifier: EPL-2.0
<configuration xmlns:xsi="http://www.w3.org/2001/XMLSchema-instance" xsi:noNamespaceSchemaLocation="http://sumo.dlr.de/xsd/netconvertConfiguration.xsd">

    <input>
        <osm-files value="osm.xml"/>
    </input>

    <output>
        <write-license value="true"/>
        <output-file value="net.net.xml"/>
        <dlr-navteq-output value="elmar_output"/>
        <dlr-navteq.precision value="2"/>
        <output.street-names value="true"/>
        <output.original-names value="true"/>
    </output>

    <projection>
        <proj.utm value="true"/>
    </projection>

    <processing>
        <numerical-ids value="true"/>
        <reserved-ids value="edge_ids.txt"/>
        <geometry.remove value="true"/>
        <roundabouts.guess value="true"/>
    </processing>

    <tls_building>
        <tls.discard-simple value="true"/>
        <tls.join value="true"/>
        <tls.guess-signals value="true"/>
    </tls_building>

    <ramp_guessing>
        <ramps.guess value="true"/>
    </ramp_guessing>

    <junctions>
        <junctions.join value="true"/>
    </junctions>

    <formats>
        <osm.all-attributes value="true"/>
    </formats>

    <report>
        <verbose value="true"/>
        <xml-validation value="never"/>
        <aggregate-warnings value="5"/>
    </report>

</configuration>
-->

<net version="1.6" junctionCornerDetail="5" limitTurnSpeed="5.50" xmlns:xsi="http://www.w3.org/2001/XMLSchema-instance" xsi:noNamespaceSchemaLocation="http://sumo.dlr.de/xsd/net_file.xsd">

    <location netOffset="-398348.81,-5809187.02" convBoundary="0.00,0.00,2075.68,948.77" origBoundary="13.453860,52.423643,13.575739,52.459757" projParameter="+proj=utm +zone=33 +ellps=WGS84 +datum=WGS84 +units=m +no_defs"/>

    <type id="highway.bridleway" priority="1" numLanes="1" speed="2.78" allow="pedestrian" oneway="1" width="2.00"/>
    <type id="highway.bus_guideway" priority="1" numLanes="1" speed="27.78" allow="bus" oneway="1"/>
    <type id="highway.cycleway" priority="1" numLanes="1" speed="8.33" allow="bicycle" oneway="0" width="1.00"/>
    <type id="highway.footway" priority="1" numLanes="1" speed="2.78" allow="pedestrian" oneway="1" width="2.00"/>
    <type id="highway.ford" priority="1" numLanes="1" speed="2.78" allow="army" oneway="0"/>
    <type id="highway.living_street" priority="2" numLanes="1" speed="2.78" disallow="tram rail_urban rail rail_electric rail_fast ship" oneway="0"/>
    <type id="highway.motorway" priority="14" numLanes="2" speed="39.44" allow="private emergency authority army vip passenger hov taxi bus coach delivery truck trailer motorcycle evehicle custom1 custom2" oneway="1"/>
    <type id="highway.motorway_link" priority="9" numLanes="1" speed="22.22" allow="private emergency authority army vip passenger hov taxi bus coach delivery truck trailer motorcycle evehicle custom1 custom2" oneway="1"/>
    <type id="highway.path" priority="1" numLanes="1" speed="2.78" allow="pedestrian bicycle" oneway="1" width="2.00"/>
    <type id="highway.pedestrian" priority="1" numLanes="1" speed="2.78" allow="pedestrian" oneway="1" width="2.00"/>
    <type id="highway.primary" priority="12" numLanes="2" speed="27.78" disallow="tram rail_urban rail rail_electric rail_fast ship" oneway="0"/>
    <type id="highway.primary_link" priority="7" numLanes="1" speed="22.22" disallow="tram rail_urban rail rail_electric rail_fast ship" oneway="0"/>
    <type id="highway.raceway" priority="15" numLanes="2" speed="83.33" allow="vip" oneway="0"/>
    <type id="highway.residential" priority="3" numLanes="1" speed="13.89" disallow="tram rail_urban rail rail_electric rail_fast ship" oneway="0"/>
    <type id="highway.secondary" priority="11" numLanes="1" speed="27.78" disallow="tram rail_urban rail rail_electric rail_fast ship" oneway="0"/>
    <type id="highway.secondary_link" priority="6" numLanes="1" speed="22.22" disallow="tram rail_urban rail rail_electric rail_fast ship" oneway="0"/>
    <type id="highway.service" priority="1" numLanes="1" speed="5.56" allow="pedestrian delivery bicycle" oneway="0"/>
    <type id="highway.stairs" priority="1" numLanes="1" speed="1.39" allow="pedestrian" oneway="1" width="2.00"/>
    <type id="highway.step" priority="1" numLanes="1" speed="1.39" allow="pedestrian" oneway="1" width="2.00"/>
    <type id="highway.steps" priority="1" numLanes="1" speed="1.39" allow="pedestrian" oneway="1" width="2.00"/>
    <type id="highway.tertiary" priority="10" numLanes="1" speed="22.22" disallow="tram rail_urban rail rail_electric rail_fast ship" oneway="0"/>
    <type id="highway.tertiary_link" priority="5" numLanes="1" speed="22.22" disallow="tram rail_urban rail rail_electric rail_fast ship" oneway="0"/>
    <type id="highway.track" priority="1" numLanes="1" speed="5.56" disallow="tram rail_urban rail rail_electric rail_fast ship" oneway="0"/>
    <type id="highway.trunk" priority="13" numLanes="2" speed="27.78" disallow="pedestrian bicycle tram rail_urban rail rail_electric rail_fast ship" oneway="0"/>
    <type id="highway.trunk_link" priority="8" numLanes="1" speed="22.22" disallow="pedestrian bicycle tram rail_urban rail rail_electric rail_fast ship" oneway="0"/>
    <type id="highway.unclassified" priority="4" numLanes="1" speed="13.89" disallow="tram rail_urban rail rail_electric rail_fast ship" oneway="0"/>
    <type id="highway.unsurfaced" priority="1" numLanes="1" speed="8.33" disallow="tram rail_urban rail rail_electric rail_fast ship" oneway="0"/>
    <type id="railway.highspeed" priority="21" numLanes="1" speed="69.44" allow="rail_fast" oneway="1"/>
    <type id="railway.light_rail" priority="19" numLanes="1" speed="27.78" allow="rail_urban" oneway="1"/>
    <type id="railway.preserved" priority="16" numLanes="1" speed="27.78" allow="rail" oneway="1"/>
    <type id="railway.rail" priority="20" numLanes="1" speed="44.44" allow="rail" oneway="1"/>
    <type id="railway.subway" priority="18" numLanes="1" speed="27.78" allow="rail_urban" oneway="1"/>
    <type id="railway.tram" priority="17" numLanes="1" speed="13.89" allow="tram" oneway="1"/>

    <edge id=":1292264836_0" function="internal">
        <lane id=":1292264836_0_0" index="0" allow="pedestrian delivery bicycle" speed="8.33" length="9.40" shape="1551.21,428.04 1541.88,429.18"/>
    </edge>
    <edge id=":1292264836_1" function="internal">
        <lane id=":1292264836_1_0" index="0" allow="pedestrian delivery bicycle" speed="6.86" length="10.19" shape="1551.21,428.04 1548.42,427.98 1546.32,427.04 1544.91,425.22 1544.20,422.52"/>
    </edge>
    <edge id=":1292264836_2" function="internal">
        <lane id=":1292264836_2_0" index="0" allow="pedestrian delivery bicycle" speed="3.65" length="4.67" shape="1551.21,428.04 1549.93,427.39 1549.43,426.64 1549.73,425.80 1550.82,424.86"/>
    </edge>
    <edge id=":1292264836_3" function="internal">
        <lane id=":1292264836_3_0" index="0" allow="pedestrian delivery bicycle" speed="5.04" length="5.01" shape="1547.38,422.15 1547.73,423.48 1548.42,424.37 1549.45,424.83 1550.82,424.86"/>
    </edge>
    <edge id=":1292264836_4" function="internal">
        <lane id=":1292264836_4_0" index="0" allow="pedestrian delivery bicycle" speed="6.87" length="10.16" shape="1547.38,422.15 1547.31,424.94 1546.37,427.04 1544.56,428.45 1541.88,429.18"/>
    </edge>
    <edge id=":1292264836_5" function="internal">
        <lane id=":1292264836_5_0" index="0" allow="pedestrian delivery bicycle" speed="3.65" length="4.67" shape="1547.38,422.15 1546.72,423.44 1545.98,423.93 1545.13,423.62 1544.20,422.52"/>
    </edge>
    <edge id=":1292264836_6" function="internal">
        <lane id=":1292264836_6_0" index="0" allow="pedestrian delivery bicycle" speed="5.06" length="5.02" shape="1541.49,426.00 1542.81,425.64 1543.71,424.94 1544.17,423.90 1544.20,422.52"/>
    </edge>
    <edge id=":1292264836_7" function="internal">
        <lane id=":1292264836_7_0" index="0" allow="pedestrian delivery bicycle" speed="8.33" length="9.40" shape="1541.49,426.00 1550.82,424.86"/>
    </edge>
    <edge id=":1292264836_8" function="internal">
        <lane id=":1292264836_8_0" index="0" allow="pedestrian delivery bicycle" speed="3.65" length="4.67" shape="1541.49,426.00 1542.78,426.65 1543.28,427.39 1542.98,428.24 1541.88,429.18"/>
    </edge>
    <edge id=":1292264842_0" function="internal">
        <lane id=":1292264842_0_0" index="0" allow="pedestrian delivery bicycle" speed="3.65" length="4.67" shape="1625.86,371.10 1627.25,370.70 1628.12,370.91 1628.47,371.73 1628.31,373.17"/>
    </edge>
    <edge id=":1292264851_0" function="internal">
        <lane id=":1292264851_0_0" index="0" allow="pedestrian delivery bicycle" speed="3.65" length="4.67" shape="1588.21,323.46 1589.50,324.10 1590.00,324.84 1589.70,325.68 1588.62,326.63"/>
    </edge>
    <edge id=":1302814166_0" function="internal">
        <lane id=":1302814166_0_0" index="0" allow="pedestrian delivery bicycle" speed="5.56" length="9.13" shape="1557.41,496.58 1555.53,494.62 1554.23,493.29 1552.82,492.09 1550.60,490.55"/>
    </edge>
    <edge id=":1302814166_1" function="internal">
        <lane id=":1302814166_1_0" index="0" allow="pedestrian delivery bicycle" speed="5.56" length="12.00" shape="1557.41,496.58 1555.95,494.34 1555.69,491.81 1556.64,488.98 1558.81,485.86"/>
    </edge>
    <edge id=":1302814166_2" function="internal">
        <lane id=":1302814166_2_0" index="0" allow="pedestrian delivery bicycle" speed="3.65" length="4.67" shape="1557.41,496.58 1557.14,495.17 1557.42,494.32 1558.27,494.04 1559.69,494.34"/>
    </edge>
    <edge id=":1302814166_3" function="internal">
        <lane id=":1302814166_3_0" index="0" allow="pedestrian delivery bicycle" speed="5.46" length="5.65" shape="1560.10,489.29 1559.14,490.70 1558.75,492.02 1558.93,493.23 1559.69,494.34"/>
    </edge>
    <edge id=":1302814166_4" function="internal">
        <lane id=":1302814166_4_0" index="0" allow="pedestrian delivery bicycle" speed="5.56" length="10.65" shape="1560.10,489.29 1557.97,491.17 1555.68,492.01 1553.23,491.80 1550.60,490.55"/>
    </edge>
    <edge id=":1302814166_5" function="internal">
        <lane id=":1302814166_5_0" index="0" allow="pedestrian delivery bicycle" speed="3.82" length="5.35" shape="1560.10,489.29 1558.49,488.91 1557.74,488.22 1557.84,487.20 1558.81,485.86"/>
    </edge>
    <edge id=":1302814166_6" function="internal">
        <lane id=":1302814166_6_0" index="0" allow="pedestrian delivery bicycle" speed="5.56" length="7.45" shape="1552.36,487.87 1553.91,488.50 1555.49,488.37 1557.13,487.49 1558.81,485.86"/>
    </edge>
    <edge id=":1302814166_7" function="internal">
        <lane id=":1302814166_7_0" index="0" allow="pedestrian delivery bicycle" speed="5.56" length="9.81" shape="1552.36,487.87 1554.75,489.52 1556.27,490.80 1557.67,492.24 1559.69,494.34"/>
    </edge>
    <edge id=":1302814166_8" function="internal">
        <lane id=":1302814166_8_0" index="0" allow="pedestrian delivery bicycle" speed="3.65" length="4.67" shape="1552.36,487.87 1552.92,489.20 1552.82,490.09 1552.05,490.54 1550.60,490.55"/>
    </edge>
    <edge id=":1392924660_0" function="internal">
        <lane id=":1392924660_0_0" index="0" disallow="tram rail_urban rail rail_electric rail_fast ship" speed="13.89" length="5.01" shape="1437.71,566.78 1432.88,565.45"/>
        <lane id=":1392924660_0_1" index="1" disallow="tram rail_urban rail rail_electric rail_fast ship" speed="13.89" length="5.01" shape="1438.55,563.69 1433.73,562.36"/>
    </edge>
    <edge id=":1392924660_2" function="internal">
        <lane id=":1392924660_2_0" index="0" allow="pedestrian bicycle" speed="4.55" length="4.61" shape="1434.24,569.16 1434.60,567.80 1434.50,566.73 1433.92,565.95 1432.88,565.45"/>
    </edge>
    <edge id=":1560223468_0" function="internal">
        <lane id=":1560223468_0_0" index="0" disallow="tram rail_urban rail rail_electric rail_fast ship" speed="13.89" length="7.48" shape="1391.57,316.63 1384.31,317.15"/>
        <lane id=":1560223468_0_1" index="1" disallow="tram rail_urban rail rail_electric rail_fast ship" speed="13.89" length="7.48" shape="1391.63,313.43 1383.98,313.97"/>
    </edge>
    <edge id=":1560223468_2" function="internal">
        <lane id=":1560223468_2_0" index="0" disallow="tram rail_urban rail rail_electric rail_fast ship" speed="13.89" length="8.80" shape="1383.32,307.60 1385.92,306.85 1387.55,305.65 1389.18,304.56 1391.80,304.11"/>
        <lane id=":1560223468_2_1" index="1" disallow="tram rail_urban rail rail_electric rail_fast ship" speed="13.89" length="8.80" shape="1383.65,310.78 1386.14,310.04 1387.69,308.85 1389.23,307.76 1391.74,307.31"/>
        <lane id=":1560223468_2_2" index="2" disallow="tram rail_urban rail rail_electric rail_fast ship" speed="13.89" length="8.80" shape="1383.65,310.78 1386.02,310.56 1387.66,310.47 1389.29,310.47 1391.68,310.51"/>
    </edge>
    <edge id=":1560223484_0" function="internal">
        <lane id=":1560223484_0_0" index="0" disallow="tram rail_urban rail rail_electric rail_fast ship" speed="7.32" length="9.98" shape="1206.17,337.13 1203.82,337.80 1202.08,339.19 1200.93,341.31 1200.38,344.15"/>
    </edge>
    <edge id=":1560223484_1" function="internal">
        <lane id=":1560223484_1_0" index="0" disallow="tram rail_urban rail rail_electric rail_fast ship" speed="13.89" length="14.41" shape="1206.17,337.13 1191.78,338.54"/>
        <lane id=":1560223484_1_1" index="1" disallow="tram rail_urban rail rail_electric rail_fast ship" speed="13.89" length="14.41" shape="1205.80,333.95 1191.50,335.35"/>
    </edge>
    <edge id=":1560223484_3" function="internal">
        <lane id=":1560223484_3_0" index="0" disallow="tram rail_urban rail rail_electric rail_fast ship" speed="3.65" length="2.34" shape="1205.80,333.95 1204.52,333.29 1204.03,332.54"/>
    </edge>
    <edge id=":1560223484_11" function="internal">
        <lane id=":1560223484_11_0" index="0" disallow="tram rail_urban rail rail_electric rail_fast ship" speed="3.65" length="2.34" shape="1204.03,332.54 1204.34,331.70 1205.44,330.77"/>
    </edge>
    <edge id=":1560223484_4" function="internal">
        <lane id=":1560223484_4_0" index="0" disallow="tram rail_urban rail rail_electric rail_fast ship" speed="13.89" length="14.24" shape="1190.95,328.98 1205.08,327.59"/>
        <lane id=":1560223484_4_1" index="1" disallow="tram rail_urban rail rail_electric rail_fast ship" speed="13.89" length="14.24" shape="1191.23,332.16 1205.44,330.77"/>
    </edge>
    <edge id=":1560223484_6" function="internal">
        <lane id=":1560223484_6_0" index="0" disallow="tram rail_urban rail rail_electric rail_fast ship" speed="8.42" length="5.55" shape="1191.23,332.16 1195.61,332.58 1196.54,333.25"/>
    </edge>
    <edge id=":1560223484_7" function="internal">
        <lane id=":1560223484_7_0" index="0" disallow="tram rail_urban rail rail_electric rail_fast ship" speed="3.65" length="2.34" shape="1191.23,332.16 1192.49,332.86 1192.96,333.62"/>
    </edge>
    <edge id=":1560223484_12" function="internal">
        <lane id=":1560223484_12_0" index="0" disallow="tram rail_urban rail rail_electric rail_fast ship" speed="8.42" length="12.28" shape="1196.54,333.25 1198.59,334.72 1200.18,338.58 1200.38,344.15"/>
    </edge>
    <edge id=":1560223484_13" function="internal">
        <lane id=":1560223484_13_0" index="0" disallow="tram rail_urban rail rail_electric rail_fast ship" speed="3.65" length="2.34" shape="1192.96,333.62 1192.63,334.45 1191.50,335.35"/>
    </edge>
    <edge id=":1560223484_8" function="internal">
        <lane id=":1560223484_8_0" index="0" disallow="tram rail_urban rail rail_electric rail_fast ship" speed="6.18" length="9.05" shape="1197.19,343.90 1197.02,341.37 1196.06,339.63 1194.32,338.69 1191.78,338.54"/>
    </edge>
    <edge id=":1560223484_9" function="internal">
        <lane id=":1560223484_9_0" index="0" disallow="tram rail_urban rail rail_electric rail_fast ship" speed="9.34" length="16.83" shape="1197.19,343.90 1198.06,338.47 1199.73,334.47 1202.19,331.90 1205.44,330.77"/>
    </edge>
    <edge id=":1560223484_10" function="internal">
        <lane id=":1560223484_10_0" index="0" disallow="tram rail_urban rail rail_electric rail_fast ship" speed="3.65" length="4.67" shape="1197.19,343.90 1198.08,342.77 1198.91,342.43 1199.67,342.89 1200.38,344.15"/>
    </edge>
    <edge id=":1560223575_0" function="internal">
        <lane id=":1560223575_0_0" index="0" allow="pedestrian bicycle" speed="2.78" length="5.00" width="2.00" shape="1455.64,423.71 1457.11,423.87 1458.13,423.96 1459.14,424.00 1460.63,424.00"/>
    </edge>
    <edge id=":1560223575_1" function="internal">
        <lane id=":1560223575_1_0" index="0" allow="pedestrian bicycle" speed="2.78" length="4.20" width="2.00" shape="1455.64,423.71 1456.81,424.01 1457.48,424.59 1457.67,425.47 1457.36,426.64"/>
    </edge>
    <edge id=":1560223591_0" function="internal">
        <lane id=":1560223591_0_0" index="0" disallow="tram rail_urban rail rail_electric rail_fast ship" speed="6.50" length="9.03" shape="1198.20,451.81 1195.73,451.95 1193.90,452.85 1192.71,454.51 1192.16,456.92"/>
    </edge>
    <edge id=":1560223591_1" function="internal">
        <lane id=":1560223591_1_0" index="0" disallow="tram rail_urban rail rail_electric rail_fast ship" speed="8.08" length="14.16" shape="1198.20,451.81 1194.41,450.95 1191.77,449.10 1190.27,446.26 1189.92,442.44"/>
    </edge>
    <edge id=":1560223591_2" function="internal">
        <lane id=":1560223591_2_0" index="0" disallow="tram rail_urban rail rail_electric rail_fast ship" speed="3.65" length="4.67" shape="1198.20,451.81 1197.07,450.91 1196.74,450.08 1197.20,449.31 1198.46,448.62"/>
    </edge>
    <edge id=":1560223591_3" function="internal">
        <lane id=":1560223591_3_0" index="0" disallow="tram rail_urban rail rail_electric rail_fast ship" speed="6.60" length="9.11" shape="1193.12,442.60 1193.34,445.06 1194.31,446.88 1196.02,448.06 1198.46,448.62"/>
    </edge>
    <edge id=":1560223591_4" function="internal">
        <lane id=":1560223591_4_0" index="0" disallow="tram rail_urban rail rail_electric rail_fast ship" speed="13.89" length="14.35" shape="1193.12,442.60 1192.16,456.92"/>
    </edge>
    <edge id=":1560223591_5" function="internal">
        <lane id=":1560223591_5_0" index="0" disallow="tram rail_urban rail rail_electric rail_fast ship" speed="3.65" length="4.67" shape="1193.12,442.60 1192.26,443.76 1191.44,444.12 1190.66,443.68 1189.92,442.44"/>
    </edge>
    <edge id=":1560223591_6" function="internal">
        <lane id=":1560223591_6_0" index="0" disallow="tram rail_urban rail rail_electric rail_fast ship" speed="13.89" length="14.26" shape="1188.97,456.66 1189.92,442.44"/>
    </edge>
    <edge id=":1560223591_7" function="internal">
        <lane id=":1560223591_7_0" index="0" disallow="tram rail_urban rail rail_electric rail_fast ship" speed="8.00" length="14.20" shape="1188.97,456.66 1189.83,452.87 1191.70,450.26 1194.58,448.85 1198.46,448.62"/>
    </edge>
    <edge id=":1560223591_8" function="internal">
        <lane id=":1560223591_8_0" index="0" disallow="tram rail_urban rail rail_electric rail_fast ship" speed="3.65" length="4.67" shape="1188.97,456.66 1189.86,455.53 1190.69,455.20 1191.46,455.66 1192.16,456.92"/>
    </edge>
    <edge id=":1560223615_0" function="internal">
        <lane id=":1560223615_0_0" index="0" disallow="tram rail_urban rail rail_electric rail_fast ship" speed="6.49" length="9.03" shape="1311.71,461.20 1309.24,461.37 1307.42,462.29 1306.26,463.96 1305.75,466.39"/>
    </edge>
    <edge id=":1560223615_1" function="internal">
        <lane id=":1560223615_1_0" index="0" disallow="tram rail_urban rail rail_electric rail_fast ship" speed="13.89" length="14.54" shape="1311.71,461.20 1297.22,460.06"/>
    </edge>
    <edge id=":1560223615_2" function="internal">
        <lane id=":1560223615_2_0" index="0" allow="pedestrian delivery bicycle" speed="8.05" length="6.05" shape="1311.71,461.20 1307.85,460.36 1306.14,459.15"/>
    </edge>
    <edge id=":1560223615_3" function="internal">
        <lane id=":1560223615_3_0" index="0" disallow="tram rail_urban rail rail_electric rail_fast ship" speed="3.65" length="2.34" shape="1311.71,461.20 1310.57,460.31 1310.23,459.48"/>
    </edge>
    <edge id=":1560223615_16" function="internal">
        <lane id=":1560223615_16_0" index="0" allow="pedestrian delivery bicycle" speed="8.05" length="8.31" shape="1306.14,459.15 1305.19,458.49 1303.72,455.61 1303.45,451.70"/>
    </edge>
    <edge id=":1560223615_17" function="internal">
        <lane id=":1560223615_17_0" index="0" disallow="tram rail_urban rail rail_electric rail_fast ship" speed="3.65" length="2.34" shape="1310.23,459.48 1310.69,458.72 1311.95,458.01"/>
    </edge>
    <edge id=":1560223615_4" function="internal">
        <lane id=":1560223615_4_0" index="0" allow="pedestrian delivery bicycle" speed="6.58" length="9.25" shape="1306.64,451.87 1306.82,454.40 1307.76,456.26 1309.47,457.46 1311.95,458.01"/>
    </edge>
    <edge id=":1560223615_5" function="internal">
        <lane id=":1560223615_5_0" index="0" allow="pedestrian delivery bicycle" speed="9.72" length="14.54" shape="1306.64,451.87 1305.75,466.39"/>
    </edge>
    <edge id=":1560223615_6" function="internal">
        <lane id=":1560223615_6_0" index="0" allow="pedestrian delivery bicycle" speed="7.99" length="14.27" shape="1306.64,451.87 1305.81,455.73 1303.96,458.38 1301.10,459.82 1297.22,460.06"/>
    </edge>
    <edge id=":1560223615_7" function="internal">
        <lane id=":1560223615_7_0" index="0" allow="pedestrian delivery bicycle" speed="3.65" length="4.67" shape="1306.64,451.87 1305.78,453.03 1304.96,453.38 1304.18,452.94 1303.45,451.70"/>
    </edge>
    <edge id=":1560223615_8" function="internal">
        <lane id=":1560223615_8_0" index="0" allow="pedestrian delivery bicycle" speed="6.48" length="9.02" shape="1297.48,456.87 1299.94,456.72 1301.75,455.81 1302.92,454.13 1303.45,451.70"/>
    </edge>
    <edge id=":1560223615_9" function="internal">
        <lane id=":1560223615_9_0" index="0" disallow="tram rail_urban rail rail_electric rail_fast ship" speed="13.89" length="14.51" shape="1297.48,456.87 1311.95,458.01"/>
    </edge>
    <edge id=":1560223615_10" function="internal">
        <lane id=":1560223615_10_0" index="0" disallow="tram rail_urban rail rail_electric rail_fast ship" speed="8.09" length="5.95" shape="1297.48,456.87 1301.31,457.74 1302.96,458.90"/>
    </edge>
    <edge id=":1560223615_11" function="internal">
        <lane id=":1560223615_11_0" index="0" disallow="tram rail_urban rail rail_electric rail_fast ship" speed="3.65" length="2.34" shape="1297.48,456.87 1298.61,457.76 1298.95,458.59"/>
    </edge>
    <edge id=":1560223615_18" function="internal">
        <lane id=":1560223615_18_0" index="0" disallow="tram rail_urban rail rail_electric rail_fast ship" speed="8.09" length="8.37" shape="1302.96,458.90 1303.97,459.61 1305.45,462.50 1305.75,466.39"/>
    </edge>
    <edge id=":1560223615_19" function="internal">
        <lane id=":1560223615_19_0" index="0" disallow="tram rail_urban rail rail_electric rail_fast ship" speed="3.65" length="2.34" shape="1298.95,458.59 1298.48,459.36 1297.22,460.06"/>
    </edge>
    <edge id=":1560223615_12" function="internal">
        <lane id=":1560223615_12_0" index="0" disallow="tram rail_urban rail rail_electric rail_fast ship" speed="6.61" length="9.23" shape="1302.56,466.18 1302.36,463.68 1301.40,461.82 1299.69,460.62 1297.22,460.06"/>
    </edge>
    <edge id=":1560223615_13" function="internal">
        <lane id=":1560223615_13_0" index="0" allow="pedestrian delivery bicycle" speed="9.72" length="14.51" shape="1302.56,466.18 1303.45,451.70"/>
    </edge>
    <edge id=":1560223615_14" function="internal">
        <lane id=":1560223615_14_0" index="0" disallow="tram rail_urban rail rail_electric rail_fast ship" speed="7.98" length="14.23" shape="1302.56,466.18 1303.36,462.36 1305.19,459.72 1308.05,458.27 1311.95,458.01"/>
    </edge>
    <edge id=":1560223615_15" function="internal">
        <lane id=":1560223615_15_0" index="0" disallow="tram rail_urban rail rail_electric rail_fast ship" speed="3.65" length="4.67" shape="1302.56,466.18 1303.43,465.03 1304.26,464.69 1305.03,465.14 1305.75,466.39"/>
    </edge>
    <edge id=":1560223633_0" function="internal">
        <lane id=":1560223633_0_0" index="0" allow="pedestrian delivery bicycle" speed="3.65" length="4.67" shape="1535.04,471.48 1535.66,470.18 1536.40,469.67 1537.24,469.96 1538.21,471.03"/>
    </edge>
    <edge id=":1560223789_0" function="internal">
        <lane id=":1560223789_0_0" index="0" allow="pedestrian delivery bicycle" speed="5.23" length="5.15" shape="994.91,564.57 993.46,564.57 992.33,564.98 991.52,565.80 991.05,567.05"/>
    </edge>
    <edge id=":1560223789_1" function="internal">
        <lane id=":1560223789_1_0" index="0" allow="pedestrian delivery bicycle" speed="6.85" length="10.24" shape="994.91,564.57 992.21,563.81 990.41,562.36 989.53,560.22 989.55,557.41"/>
    </edge>
    <edge id=":1560223789_2" function="internal">
        <lane id=":1560223789_2_0" index="0" allow="pedestrian delivery bicycle" speed="3.65" length="4.67" shape="994.91,564.57 993.83,563.62 993.54,562.77 994.05,562.04 995.34,561.40"/>
    </edge>
    <edge id=":1560223789_3" function="internal">
        <lane id=":1560223789_3_0" index="0" allow="pedestrian delivery bicycle" speed="5.02" length="5.02" shape="992.72,557.89 992.70,559.27 993.14,560.32 994.02,561.03 995.34,561.40"/>
    </edge>
    <edge id=":1560223789_4" function="internal">
        <lane id=":1560223789_4_0" index="0" disallow="tram rail_urban rail rail_electric rail_fast ship" speed="13.89" length="9.31" shape="992.72,557.89 991.05,567.05"/>
    </edge>
    <edge id=":1560223789_5" function="internal">
        <lane id=":1560223789_5_0" index="0" disallow="tram rail_urban rail rail_electric rail_fast ship" speed="3.65" length="2.34" shape="992.72,557.89 991.74,558.96 990.89,559.23"/>
    </edge>
    <edge id=":1560223789_10" function="internal">
        <lane id=":1560223789_10_0" index="0" disallow="tram rail_urban rail rail_electric rail_fast ship" speed="3.65" length="2.34" shape="990.89,559.23 990.16,558.72 989.55,557.41"/>
    </edge>
    <edge id=":1560223789_6" function="internal">
        <lane id=":1560223789_6_0" index="0" disallow="tram rail_urban rail rail_electric rail_fast ship" speed="13.89" length="9.03" shape="984.79,565.72 986.39,556.93"/>
        <lane id=":1560223789_6_1" index="1" disallow="tram rail_urban rail rail_electric rail_fast ship" speed="13.89" length="9.03" shape="987.92,566.38 989.55,557.41"/>
    </edge>
    <edge id=":1560223789_8" function="internal">
        <lane id=":1560223789_8_0" index="0" allow="pedestrian delivery bicycle" speed="7.01" length="4.75" shape="987.92,566.38 988.85,563.89 990.28,562.36"/>
    </edge>
    <edge id=":1560223789_9" function="internal">
        <lane id=":1560223789_9_0" index="0" disallow="tram rail_urban rail rail_electric rail_fast ship" speed="3.65" length="2.34" shape="987.92,566.38 988.95,565.38 989.82,565.15"/>
    </edge>
    <edge id=":1560223789_11" function="internal">
        <lane id=":1560223789_11_0" index="0" allow="pedestrian delivery bicycle" speed="7.01" length="5.28" shape="990.28,562.36 990.40,562.23 992.56,561.40 995.34,561.40"/>
    </edge>
    <edge id=":1560223789_12" function="internal">
        <lane id=":1560223789_12_0" index="0" disallow="tram rail_urban rail rail_electric rail_fast ship" speed="3.65" length="2.34" shape="989.82,565.15 990.52,565.71 991.05,567.05"/>
    </edge>
    <edge id=":1560223809_0" function="internal">
        <lane id=":1560223809_0_0" index="0" allow="pedestrian delivery bicycle" speed="5.03" length="5.01" shape="1042.44,570.72 1041.07,570.81 1040.06,571.32 1039.41,572.25 1039.13,573.60"/>
    </edge>
    <edge id=":1560223809_1" function="internal">
        <lane id=":1560223809_1_0" index="0" allow="pedestrian delivery bicycle" speed="5.56" length="9.31" shape="1042.44,570.72 1033.18,569.75"/>
    </edge>
    <edge id=":1560223809_2" function="internal">
        <lane id=":1560223809_2_0" index="0" allow="pedestrian delivery bicycle" speed="3.65" length="4.67" shape="1042.44,570.72 1041.30,569.83 1040.97,569.00 1041.42,568.24 1042.68,567.53"/>
    </edge>
    <edge id=":1560223809_3" function="internal">
        <lane id=":1560223809_3_0" index="0" allow="pedestrian delivery bicycle" speed="5.56" length="9.12" shape="1033.61,566.58 1042.68,567.53"/>
    </edge>
    <edge id=":1560223809_4" function="internal">
        <lane id=":1560223809_4_0" index="0" allow="pedestrian delivery bicycle" speed="5.56" length="10.03" shape="1033.61,566.58 1036.18,567.32 1037.95,568.74 1038.94,570.83 1039.13,573.60"/>
    </edge>
    <edge id=":1560223809_5" function="internal">
        <lane id=":1560223809_5_0" index="0" allow="pedestrian delivery bicycle" speed="3.65" length="4.67" shape="1033.61,566.58 1034.69,567.54 1034.98,568.38 1034.48,569.12 1033.18,569.75"/>
    </edge>
    <edge id=":1560223809_6" function="internal">
        <lane id=":1560223809_6_0" index="0" allow="pedestrian delivery bicycle" speed="5.21" length="5.13" shape="1035.94,573.39 1035.85,571.95 1035.35,570.86 1034.47,570.13 1033.18,569.75"/>
    </edge>
    <edge id=":1560223809_7" function="internal">