<routes xmlns:xsi="http://www.w3.org/2001/XMLSchema-instance" xsi:noNamespaceSchemaLocation="http://sumo.sf.net/xsd/routes_file.xsd">
   <vehicle id="0" depart="0" departPos="600">
      <route edges="beg middle end rend"/>
   </vehicle>
</routes>
