<?xml version="1.0" encoding="UTF-8"?>

<!-- generated on 2022-09-05 12:56:07 by Eclipse SUMO netedit Version v1_14_1+0826-80f0973
<configuration xmlns:xsi="http://www.w3.org/2001/XMLSchema-instance" xsi:noNamespaceSchemaLocation="http://sumo.dlr.de/xsd/netconvertConfiguration.xsd">

    <input>
        <new value="true"/>
    </input>

    <output>
        <output-file value="/scr1/sumo/tests/sumo/pedestrian_model/striping/speedLimit/net.net.xml"/>
    </output>

    <processing>
        <offset.disable-normalization value="true"/>
    </processing>

</configuration>
-->

<net version="1.9" junctionCornerDetail="5" limitTurnSpeed="5.50" xmlns:xsi="http://www.w3.org/2001/XMLSchema-instance" xsi:noNamespaceSchemaLocation="http://sumo.dlr.de/xsd/net_file.xsd">

    <location netOffset="0.00,0.00" convBoundary="0.00,0.00,100.00,0.00" origBoundary="10000000000.00,10000000000.00,-10000000000.00,-10000000000.00" projParameter="!"/>

    <edge id="-E0" from="J1" to="J0" priority="-1">
        <lane id="-E0_0" index="0" allow="pedestrian" speed="1.00" length="100.00" width="2.00" shape="100.00,1.00 0.00,1.00"/>
    </edge>
    <edge id="E0" from="J0" to="J1" priority="-1">
        <lane id="E0_0" index="0" allow="pedestrian" speed="2.00" length="100.00" width="2.00" shape="0.00,-1.00 100.00,-1.00"/>
    </edge>

    <junction id="J0" type="dead_end" x="0.00" y="0.00" incLanes="-E0_0" intLanes="" shape="0.00,0.00 0.00,2.00 0.00,0.00"/>
    <junction id="J1" type="dead_end" x="100.00" y="0.00" incLanes="E0_0" intLanes="" shape="100.00,0.00 100.00,-2.00 100.00,0.00"/>

</net>
