<?xml version="1.0" encoding="UTF-8"?>

<!-- generated on 2022-03-07 12:11:42 by Eclipse SUMO netedit Version v1_12_0+1177-f6b46b7e4a3
-->

<routes xmlns:xsi="http://www.w3.org/2001/XMLSchema-instance" xsi:noNamespaceSchemaLocation="http://sumo.dlr.de/xsd/routes_file.xsd">
    <!-- Vehicles, persons and containers (sorted by depart) -->
    <trip id="trip_3" depart="20.00" containerNumber="0" fromJunction="gneJ4" toJunction="gneJ7"/>
    <trip id="trip_5" depart="20.00" containerNumber="4" fromJunction="gneJ4" toJunction="gneJ7"/>
</routes>
