<?xml version="1.0"?>

<!-- generated on 05/14/09 12:22:23 by SUMO sumo Version dev-SVN-r7168
<configuration>

   <input>
      <net-file>net.net.xml</net-file>
      <additional-files>input_additional.add.xml</additional-files>
   </input>

   <time>
      <begin>0</begin>
      <end>200</end>
   </time>

   <processing>
      <no-duration-log>true</no-duration-log>
      <no-step-log>true</no-step-log>
   </processing>

   <traci_server>
      <remote-port>8863</remote-port>
      <penetration>0.7</penetration>
   </traci_server>

</configuration>
-->

<tls-states>
    <tlsstate time="0.00" id="1/1" programID="0" phase="0" state="GGggrrrrGGggrrrr"/>
    <tlsstate time="1.00" id="1/1" programID="0" phase="0" state="GGggrrrrGGggrrrr"/>
    <tlsstate time="2.00" id="1/1" programID="0" phase="0" state="GGggrrrrGGggrrrr"/>
    <tlsstate time="3.00" id="1/1" programID="0" phase="0" state="GGggrrrrGGggrrrr"/>
    <tlsstate time="4.00" id="1/1" programID="0" phase="0" state="GGggrrrrGGggrrrr"/>
    <tlsstate time="5.00" id="1/1" programID="0" phase="0" state="GGggrrrrGGggrrrr"/>
    <tlsstate time="6.00" id="1/1" programID="0" phase="0" state="GGggrrrrGGggrrrr"/>
    <tlsstate time="7.00" id="1/1" programID="0" phase="0" state="GGggrrrrGGggrrrr"/>
    <tlsstate time="8.00" id="1/1" programID="0" phase="0" state="GGggrrrrGGggrrrr"/>
    <tlsstate time="9.00" id="1/1" programID="0" phase="0" state="GGggrrrrGGggrrrr"/>
    <tlsstate time="10.00" id="1/1" programID="0" phase="0" state="GGggrrrrGGggrrrr"/>
    <tlsstate time="11.00" id="1/1" programID="0" phase="0" state="GGggrrrrGGggrrrr"/>
    <tlsstate time="12.00" id="1/1" programID="0" phase="0" state="GGggrrrrGGggrrrr"/>
    <tlsstate time="13.00" id="1/1" programID="0" phase="0" state="GGggrrrrGGggrrrr"/>
    <tlsstate time="14.00" id="1/1" programID="0" phase="0" state="GGggrrrrGGggrrrr"/>
    <tlsstate time="15.00" id="1/1" programID="0" phase="0" state="GGggrrrrGGggrrrr"/>
    <tlsstate time="16.00" id="1/1" programID="0" phase="0" state="GGggrrrrGGggrrrr"/>
    <tlsstate time="17.00" id="1/1" programID="0" phase="0" state="GGggrrrrGGggrrrr"/>
    <tlsstate time="18.00" id="1/1" programID="0" phase="0" state="GGggrrrrGGggrrrr"/>
    <tlsstate time="19.00" id="1/1" programID="0" phase="0" state="GGggrrrrGGggrrrr"/>
    <tlsstate time="20.00" id="1/1" programID="0" phase="0" state="GGggrrrrGGggrrrr"/>
    <tlsstate time="21.00" id="1/1" programID="0" phase="0" state="GGggrrrrGGggrrrr"/>
    <tlsstate time="22.00" id="1/1" programID="0" phase="0" state="GGggrrrrGGggrrrr"/>
    <tlsstate time="23.00" id="1/1" programID="0" phase="0" state="GGggrrrrGGggrrrr"/>
    <tlsstate time="24.00" id="1/1" programID="0" phase="0" state="GGggrrrrGGggrrrr"/>
    <tlsstate time="25.00" id="1/1" programID="0" phase="0" state="GGggrrrrGGggrrrr"/>
    <tlsstate time="26.00" id="1/1" programID="0" phase="0" state="GGggrrrrGGggrrrr"/>
    <tlsstate time="27.00" id="1/1" programID="0" phase="0" state="GGggrrrrGGggrrrr"/>
    <tlsstate time="28.00" id="1/1" programID="0" phase="0" state="GGggrrrrGGggrrrr"/>
    <tlsstate time="29.00" id="1/1" programID="0" phase="0" state="GGggrrrrGGggrrrr"/>
    <tlsstate time="30.00" id="1/1" programID="0" phase="0" state="GGggrrrrGGggrrrr"/>
    <tlsstate time="31.00" id="1/1" programID="0" phase="4" state="rrrrGGggrrrrGGgg"/>
    <tlsstate time="32.00" id="1/1" programID="0" phase="4" state="rrrrGGggrrrrGGgg"/>
    <tlsstate time="33.00" id="1/1" programID="0" phase="4" state="rrrrGGggrrrrGGgg"/>
    <tlsstate time="34.00" id="1/1" programID="0" phase="4" state="rrrrGGggrrrrGGgg"/>
    <tlsstate time="35.00" id="1/1" programID="0" phase="4" state="rrrrGGggrrrrGGgg"/>
    <tlsstate time="36.00" id="1/1" programID="0" phase="4" state="rrrrGGggrrrrGGgg"/>
    <tlsstate time="37.00" id="1/1" programID="0" phase="4" state="rrrrGGggrrrrGGgg"/>
    <tlsstate time="38.00" id="1/1" programID="0" phase="4" state="rrrrGGggrrrrGGgg"/>
    <tlsstate time="39.00" id="1/1" programID="0" phase="4" state="rrrrGGggrrrrGGgg"/>
    <tlsstate time="40.00" id="1/1" programID="0" phase="4" state="rrrrGGggrrrrGGgg"/>
    <tlsstate time="41.00" id="1/1" programID="0" phase="4" state="rrrrGGggrrrrGGgg"/>
    <tlsstate time="42.00" id="1/1" programID="0" phase="4" state="rrrrGGggrrrrGGgg"/>
    <tlsstate time="43.00" id="1/1" programID="0" phase="4" state="rrrrGGggrrrrGGgg"/>
    <tlsstate time="44.00" id="1/1" programID="0" phase="4" state="rrrrGGggrrrrGGgg"/>
    <tlsstate time="45.00" id="1/1" programID="0" phase="4" state="rrrrGGggrrrrGGgg"/>
    <tlsstate time="46.00" id="1/1" programID="0" phase="4" state="rrrrGGggrrrrGGgg"/>
    <tlsstate time="47.00" id="1/1" programID="0" phase="4" state="rrrrGGggrrrrGGgg"/>
    <tlsstate time="48.00" id="1/1" programID="0" phase="4" state="rrrrGGggrrrrGGgg"/>
    <tlsstate time="49.00" id="1/1" programID="0" phase="4" state="rrrrGGggrrrrGGgg"/>
    <tlsstate time="50.00" id="1/1" programID="0" phase="4" state="rrrrGGggrrrrGGgg"/>
    <tlsstate time="51.00" id="1/1" programID="0" phase="4" state="rrrrGGggrrrrGGgg"/>
</tls-states>
