<?xml version="1.0" encoding="UTF-8"?>

<!-- generated on 2025-07-16 15:44:32 by Eclipse SUMO netconvert Version v1_23_1+1114-a2be4fe0f4e
This data file and the accompanying materials
are made available under the terms of the Eclipse Public License v2.0
which accompanies this distribution, and is available at
http://www.eclipse.org/legal/epl-v20.html
This file may also be made available under the following Secondary
Licenses when the conditions for such availability set forth in the Eclipse
Public License 2.0 are satisfied: GNU General Public License, version 2
or later which is available at
https://www.gnu.org/licenses/old-licenses/gpl-2.0-standalone.html
SPDX-License-Identifier: EPL-2.0 OR GPL-2.0-or-later
<netconvertConfiguration xmlns:xsi="http://www.w3.org/2001/XMLSchema-instance" xsi:noNamespaceSchemaLocation="http://sumo.dlr.de/xsd/netconvertConfiguration.xsd">

    <input>
        <node-files value="input_plain.nod.xml"/>
        <edge-files value="input_plain.edg.xml"/>
    </input>

    <output>
        <write-license value="true"/>
        <output-file value="net.net.xml"/>
    </output>

    <report>
        <xml-validation value="never"/>
    </report>

</netconvertConfiguration>
-->

<net version="1.20" junctionCornerDetail="5" limitTurnSpeed="5.50" xmlns:xsi="http://www.w3.org/2001/XMLSchema-instance" xsi:noNamespaceSchemaLocation="http://sumo.dlr.de/xsd/net_file.xsd">

    <location netOffset="0.00,0.00" convBoundary="0.00,0.00,100.00,0.00" origBoundary="-10000000000.00,-10000000000.00,10000000000.00,10000000000.00" projParameter="!"/>

    <edge id=":J0_0" function="internal">
        <lane id=":J0_0_0" index="0" speed="3.24" length="3.20" shape="0.00,1.60 0.00,-1.60"/>
    </edge>
    <edge id=":J0_1" function="internal">
        <lane id=":J0_1_0" index="0" speed="3.65" length="4.67" shape="0.00,1.60 -1.20,0.80 -1.60,0.00 -1.20,-0.80 0.00,-1.60"/>
    </edge>
    <edge id=":J1_0" function="internal">
        <lane id=":J1_0_0" index="0" speed="3.65" length="4.67" shape="100.00,-1.60 101.20,-0.80 101.60,0.00 101.20,0.80 100.00,1.60"/>
    </edge>
    <edge id=":J1_1" function="internal">
        <lane id=":J1_1_0" index="0" speed="3.24" length="3.20" shape="100.00,-1.60 100.00,1.60"/>
    </edge>

    <edge id="-E0" from="J1" to="J0" priority="-1">
        <lane id="-E0_0" index="0" speed="13.89" length="100.00" shape="100.00,1.60 0.00,1.60">
            <neigh lane="E1_0"/>
        </lane>
    </edge>
    <edge id="E0" from="J0" to="J1" priority="-1">
        <lane id="E0_0" index="0" speed="13.89" length="100.00" shape="0.00,-1.60 100.00,-1.60"/>
    </edge>
    <edge id="E1" from="J0" to="J1" priority="-1">
        <lane id="E1_0" index="0" speed="13.89" length="100.00" shape="0.00,-1.60 100.00,-1.60">
            <neigh lane="-E0_0"/>
        </lane>
    </edge>

    <junction id="J0" type="priority" x="0.00" y="0.00" incLanes="-E0_0" intLanes=":J0_0_0 :J0_1_0" shape="0.00,3.20 0.00,0.00 0.00,-3.20">
        <request index="0" response="00" foes="00" cont="0"/>
        <request index="1" response="00" foes="00" cont="0"/>
    </junction>
    <junction id="J1" type="priority" x="100.00" y="0.00" incLanes="E0_0 E1_0" intLanes=":J1_0_0 :J1_1_0" shape="100.00,-3.20 100.00,0.00 100.00,3.20">
        <request index="0" response="10" foes="10" cont="0"/>
        <request index="1" response="00" foes="01" cont="0"/>
    </junction>

    <connection from="-E0" to="E1" fromLane="0" toLane="0" via=":J0_0_0" dir="t" state="M"/>
    <connection from="-E0" to="E0" fromLane="0" toLane="0" via=":J0_1_0" dir="t" state="M"/>
    <connection from="E0" to="-E0" fromLane="0" toLane="0" via=":J1_0_0" dir="t" state="m"/>
    <connection from="E1" to="-E0" fromLane="0" toLane="0" via=":J1_1_0" dir="t" state="M"/>

    <connection from=":J0_0" to="E1" fromLane="0" toLane="0" dir="t" state="M"/>
    <connection from=":J0_1" to="E0" fromLane="0" toLane="0" dir="t" state="M"/>
    <connection from=":J1_0" to="-E0" fromLane="0" toLane="0" dir="t" state="M"/>
    <connection from=":J1_1" to="-E0" fromLane="0" toLane="0" dir="t" state="M"/>

</net>
