<?xml version="1.0" encoding="UTF-8"?>

<!-- generated on 07.08.2019 13:30:54 by Eclipse SUMO netedit Version v1_2_0+1449-4e81e5b6f5
<configuration xmlns:xsi="http://www.w3.org/2001/XMLSchema-instance" xsi:noNamespaceSchemaLocation="http://sumo.dlr.de/xsd/netconvertConfiguration.xsd">

    <input>
        <sumo-net-file value="C:/Users/SUMO-Test/.texttest/tmp/netedit.gui.07Aug081821.3780/netedit.gui/additionalElements/parkingarea/load/roadsidecapacity\input_net.net.xml"/>
    </input>

    <output>
        <output-file value="C:/Users/SUMO-Test/.texttest/tmp/netedit.gui.07Aug081821.3780/netedit.gui/additionalElements/parkingarea/load/roadsidecapacity\net.net.xml"/>
    </output>

    <processing>
        <geometry.max-grade.fix value="false"/>
        <offset.disable-normalization value="true"/>
        <lefthand value="false"/>
    </processing>

    <junctions>
        <no-turnarounds value="true"/>
        <junctions.corner-detail value="5"/>
        <junctions.limit-turn-speed value="5.5"/>
        <rectangular-lane-cut value="false"/>
    </junctions>

    <pedestrian>
        <walkingareas value="false"/>
    </pedestrian>

    <netedit>
        <additional-files value="C:/Users/SUMO-Test/.texttest/tmp/netedit.gui.07Aug081821.3780/netedit.gui/additionalElements/parkingarea/load/roadsidecapacity\additionals.xml"/>
        <additionals-output value="C:/Users/SUMO-Test/.texttest/tmp/netedit.gui.07Aug081821.3780/netedit.gui/additionalElements/parkingarea/load/roadsidecapacity\additionals.xml"/>
        <route-files value="C:/Users/SUMO-Test/.texttest/tmp/netedit.gui.07Aug081821.3780/netedit.gui/additionalElements/parkingarea/load/roadsidecapacity\routes.xml"/>
        <demandelements-output value="C:/Users/SUMO-Test/.texttest/tmp/netedit.gui.07Aug081821.3780/netedit.gui/additionalElements/parkingarea/load/roadsidecapacity\routes.xml"/>
    </netedit>

    <visualisation>
        <gui-settings-file value="C:/Users/SUMO-Test/.texttest/tmp/netedit.gui.07Aug081821.3780/netedit.gui/additionalElements/parkingarea/load/roadsidecapacity\gui-settings.xml"/>
        <window-size value="700,500"/>
        <window-pos value="50,50"/>
        <gui-testing value="true"/>
        <gui-testing-debug value="true"/>
        <gui-testing-debug-gl value="true"/>
    </visualisation>

    <report>
        <no-warnings value="true"/>
        <error-log value="C:/Users/SUMO-Test/.texttest/tmp/netedit.gui.07Aug081821.3780/netedit.gui/additionalElements/parkingarea/load/roadsidecapacity\log.txt"/>
    </report>

</configuration>
-->

<additional xmlns:xsi="http://www.w3.org/2001/XMLSchema-instance" xsi:noNamespaceSchemaLocation="http://sumo.dlr.de/xsd/additional_file.xsd">
    <parkingArea id="parkingArea_0" lane="gneE0_0" startPos="25" endPos="30" name="parkingArea" width="12.00" length="5.00"/>
    <parkingArea id="parkingArea_1" lane="gneE0_0" startPos="27" endPos="32" name="parkingArea" width="12.00" length="5.00"/>
    <parkingArea id="parkingArea_2" lane="gneE0_0" startPos="29" endPos="34" name="parkingArea" width="12.00" length="5.00"/>
    <parkingArea id="parkingArea_3" lane="gneE1_0" startPos="5" endPos="10" name="parkingArea" width="12.00" length="5.00"/>
    <parkingArea id="parkingArea_4" lane="gneE1_0" startPos="7" endPos="12" name="parkingArea" roadsideCapacity="4" friendlyPos="1" width="12.00" length="5.00"/>
</additional>
