<?xml version="1.0" encoding="UTF-8"?>

<!-- generated on 2025-11-11 17:07:51.212094 by Eclipse SUMO netdiff.py v1_24_0+1831-58b1cd282a8
<configuration>
    <source value="source.net.xml.gz"/>
    <dest value="dest.net.xml.gz"/>
    <outprefix value="diff"/>
</configuration>
-->

<nodes version="1.20" xmlns:xsi="http://www.w3.org/2001/XMLSchema-instance" xsi:noNamespaceSchemaLocation="http://sumo.dlr.de/xsd/nodes_file.xsd">
    <!-- Deleted Elements -->
    <!-- Created Elements -->
    <node id="J0" type="priority" x="356.46" y="497.56"/>
    <!-- Changed Elements -->
</nodes>
