<?xml version="1.0"?>

<!-- generated on 07/22/09 08:11:50 by SUMO sumo Version dev-SVN-r7459
<configuration>

    <input
        net-file="net.net.xml"
        route-files="input_routes.rou.xml"
    />

    <output
        vehroute-output="vehroutes.xml"
    />

    <report
        no-duration-log="true"
        no-step-log="true"
    />

</configuration>
-->

<routes>
   <vehicle id="veh0" depart="1" arrival="440">
      <route edges="beg end"/>
   </vehicle>

</routes>
