<?xml version="1.0" encoding="UTF-8"?>

<!-- generated on 2022-06-27 11:05:26 by Eclipse SUMO netedit Version v1_13_0+1230-a4a2020ca5f
-->

<routes xmlns:xsi="http://www.w3.org/2001/XMLSchema-instance" xsi:noNamespaceSchemaLocation="http://sumo.dlr.de/xsd/routes_file.xsd">
    <!-- Routes -->
    <route id="route_0" edges="gneE2 gneE4 gneE5"/>
    <route id="route_3" edges="gneE2 gneE4 gneE5" color="13,14,15"/>
</routes>
