<routes>
    <route id="r0" edges="gneE0"/>
</routes>
