<?xml version="1.0" encoding="UTF-8"?>

<!-- generated on 2025-01-08 15:55:32 by Eclipse SUMO netedit Version v1_21_0+1753-5c4601afe0a
This data file and the accompanying materials
are made available under the terms of the Eclipse Public License v2.0
which accompanies this distribution, and is available at
http://www.eclipse.org/legal/epl-v20.html
This file may also be made available under the following Secondary
Licenses when the conditions for such availability set forth in the Eclipse
Public License 2.0 are satisfied: GNU General Public License, version 2
or later which is available at
https://www.gnu.org/licenses/old-licenses/gpl-2.0-standalone.html
SPDX-License-Identifier: EPL-2.0 OR GPL-2.0-or-later
-->

<additional xmlns:xsi="http://www.w3.org/2001/XMLSchema-instance" xsi:noNamespaceSchemaLocation="http://sumo.dlr.de/xsd/additional_file.xsd">
    <!-- StoppingPlaces -->
    <chargingStation id="chargingStationA" name="chargingStationNameA" lane="EdgeCenter1_1" startPos="16.71" endPos="26.71" power="21000.00" efficiency="0.50" chargeDelay="1000" chargeType="battery-exchange" waitingTime="600.00">
        <param key="KeyA1" value="valueA1"/>
        <param key="KeyA2" value="valueA3"/>
        <param key="KeyA3" value="valueA2"/>
    </chargingStation>
    <chargingStation id="chargingStationB" name="chargingStationNameB" lane="EdgeCenter0_1" startPos="26.71" endPos="36.71" friendlyPos="1" power="13000.00" efficiency="0.50" chargeInTransit="1" chargeDelay="2000" chargeType="fuel" waitingTime="500.00">
        <param key="KeyB1" value="valueB1"/>
        <param key="KeyB2" value="valueB3"/>
        <param key="KeyB3" value="valueB2"/>
    </chargingStation>
</additional>
