<?xml version="1.0" encoding="UTF-8"?>

<!-- generated on Wed Sep 28 15:25:33 2016 by SUMO netconvert Version dev-SVN-r21562
<?xml version="1.0" encoding="UTF-8"?>

<configuration xmlns:xsi="http://www.w3.org/2001/XMLSchema-instance" xsi:noNamespaceSchemaLocation="http://sumo.dlr.de/xsd/netconvertConfiguration.xsd">

    <input>
        <sumo-net-file value="input_net.net.xml"/>
    </input>

    <output>
        <output-file value="net.net.xml"/>
    </output>

    <processing>
        <no-internal-links value="true"/>
        <no-turnarounds value="true"/>
        <geometry.remove value="true"/>
        <offset.disable-normalization value="true"/>
        <lefthand value="false"/>
        <junctions.corner-detail value="0"/>
    </processing>

    <report>
        <xml-validation value="never"/>
    </report>

</configuration>
-->

<net version="0.27" xmlns:xsi="http://www.w3.org/2001/XMLSchema-instance" xsi:noNamespaceSchemaLocation="http://sumo.dlr.de/xsd/net_file.xsd">

    <location netOffset="-410353.63,-6369087.60" convBoundary="949.81,707.32,2285.56,1653.21" origBoundary="-4.511842,57.454194,-4.409236,57.502622" projParameter="+proj=utm +zone=30 +ellps=WGS84 +datum=WGS84 +units=m +no_defs"/>

    <edge id="-143878730#0" from="1000236940" to="26910797" priority="9" type="highway.primary" shape="1074.17,1637.73 1081.66,1638.71 1181.43,1652.68 1195.68,1653.21 1212.09,1652.27 1222.35,1651.10 1234.21,1648.99 1286.90,1636.50 1406.24,1610.31 1673.18,1556.36 1726.54,1543.14 1771.41,1525.92 1959.77,1441.07 1979.84,1430.93 1987.54,1426.59 1997.40,1420.99 2017.52,1407.98 2047.61,1386.76 2057.18,1378.28 2070.33,1365.88 2081.51,1353.52 2096.28,1328.55 2106.10,1300.36 2122.70,1233.55 2136.80,1166.08 2149.64,1099.30 2160.96,1031.76 2207.76,840.14 2226.26,791.52 2247.57,754.92 2285.56,707.32">
        <lane id="-143878730#0_0" index="0" speed="26.82" length="1756.27" shape="1074.53,1636.11 1081.88,1637.07 1181.58,1651.03 1195.66,1651.56 1211.95,1650.63 1222.11,1649.47 1233.87,1647.37 1286.53,1634.89 1405.90,1608.70 1672.82,1554.75 1726.04,1541.56 1770.78,1524.40 1959.06,1439.58 1979.06,1429.47 1986.73,1425.15 1996.54,1419.58 2016.60,1406.61 2046.58,1385.46 2056.07,1377.06 2069.15,1364.72 2080.17,1352.54 2094.78,1327.85 2104.52,1299.89 2121.09,1233.18 2135.18,1165.76 2148.02,1099.01 2159.34,1031.43 2206.18,839.65 2224.77,790.81 2246.20,753.99 2284.27,706.29"/>
    </edge>
    <edge id="-143878730#1" from="1574468867" to="1000236940" priority="9" type="highway.primary" shape="949.81,1631.16 955.93,1629.63 965.70,1627.85 980.71,1627.91 992.72,1628.68 1016.56,1630.99 1042.40,1633.83 1074.17,1637.73">
        <lane id="-143878730#1_0" index="0" speed="26.82" length="125.24" shape="949.41,1629.56 955.58,1628.02 965.55,1626.20 980.77,1626.26 992.85,1627.04 1016.73,1629.35 1042.59,1632.19 1074.22,1636.07"/>
    </edge>
    <edge id="143878730#1" from="1000236940" to="1574468867" priority="9" type="highway.primary" shape="1074.17,1637.73 1042.40,1633.83 1016.56,1630.99 992.72,1628.68 980.71,1627.91 965.70,1627.85 955.93,1629.63 949.81,1631.16">
        <lane id="143878730#1_0" index="0" speed="26.82" length="125.24" shape="1073.82,1639.35 1042.21,1635.47 1016.39,1632.63 992.59,1630.32 980.65,1629.56 965.85,1629.50 956.28,1631.24 950.21,1632.76"/>
    </edge>
    <edge id="53332519#0" from="26910797" to="1000236940" priority="9" type="highway.primary" shape="2285.56,707.32 2247.57,754.92 2226.26,791.52 2207.76,840.14 2160.96,1031.76 2149.64,1099.30 2136.80,1166.08 2122.70,1233.55 2106.10,1300.36 2096.28,1328.55 2081.51,1353.52 2070.33,1365.88 2057.18,1378.28 2047.61,1386.76 2017.52,1407.98 1997.40,1420.99 1987.54,1426.59 1979.84,1430.93 1959.77,1441.07 1771.41,1525.92 1726.54,1543.14 1673.18,1556.36 1406.24,1610.31 1286.90,1636.50 1234.21,1648.99 1222.35,1651.10 1212.09,1652.27 1195.68,1653.21 1181.43,1652.68 1081.66,1638.71 1074.17,1637.73">
        <lane id="53332519#0_0" index="0" speed="26.82" length="1756.27" shape="2286.85,708.35 2248.94,755.85 2227.75,792.23 2209.34,840.63 2162.58,1032.09 2151.26,1099.59 2138.42,1166.40 2124.31,1233.92 2107.68,1300.83 2097.78,1329.25 2082.85,1354.50 2071.51,1367.04 2058.29,1379.50 2048.64,1388.06 2018.44,1409.35 1998.26,1422.40 1988.35,1428.03 1980.62,1432.39 1960.48,1442.56 1772.04,1527.44 1727.04,1544.72 1673.54,1557.97 1406.58,1611.92 1287.27,1638.11 1234.55,1650.61 1222.59,1652.73 1212.23,1653.91 1195.70,1654.86 1181.28,1654.33 1081.43,1640.34 1074.10,1639.39"/>
    </edge>

    <tlLogic id="1000236940" type="static" programID="0" offset="0">
        <phase duration="31" state="GggrrrGGg"/>
        <phase duration="8" state="yggrrryyg"/>
        <phase duration="6" state="rGGrrrrrG"/>
        <phase duration="8" state="ryyrrrrry"/>
        <phase duration="31" state="rrrGGgGrr"/>
        <phase duration="8" state="rrryyyyrr"/>
    </tlLogic>

    <junction id="1000236940" type="traffic_light" x="1074.17" y="1637.73" incLanes="53332519#0_0 -143878730#1_0" intLanes="" shape="1073.90,1640.97 1074.74,1634.53 1074.42,1634.49 1073.63,1640.94">
        <request index="0" response="0000" foes="1000"/>
        <request index="1" response="0100" foes="0100"/>
        <request index="2" response="0000" foes="0010"/>
        <request index="3" response="0001" foes="0001"/>
    </junction>
    <junction id="1574468867" type="priority" x="949.81" y="1631.16" incLanes="143878730#1_0" intLanes="" shape="949.80,1631.11 950.60,1634.31 949.82,1631.21">
        <request index="0" response="0" foes="0"/>
    </junction>
    <junction id="26910797" type="priority" x="2285.56" y="707.32" incLanes="-143878730#0_0" intLanes="" shape="2285.60,707.35 2283.02,705.29 2285.52,707.29">
        <request index="0" response="0" foes="0"/>
    </junction>

    <connection from="-143878730#0" to="53332519#0" fromLane="0" toLane="0" dir="t" state="M"/>
    <connection from="-143878730#1" to="-143878730#0" fromLane="0" toLane="0" tl="1000236940" linkIndex="7" dir="s" state="o"/>
    <connection from="-143878730#1" to="143878730#1" fromLane="0" toLane="0" tl="1000236940" linkIndex="8" dir="t" state="o"/>
    <connection from="143878730#1" to="-143878730#1" fromLane="0" toLane="0" dir="t" state="M"/>
    <connection from="53332519#0" to="143878730#1" fromLane="0" toLane="0" tl="1000236940" linkIndex="0" dir="s" state="o"/>
    <connection from="53332519#0" to="-143878730#0" fromLane="0" toLane="0" tl="1000236940" linkIndex="2" dir="t" state="o"/>

</net>
