<?xml version="1.0" encoding="UTF-8"?>

<!-- generated on Mon Feb 17 15:30:57 2020 by Eclipse SUMO netconvert Version v1_5_0+0130-ceb0a01
This data file and the accompanying materials
are made available under the terms of the Eclipse Public License v2.0
which accompanies this distribution, and is available at
http://www.eclipse.org/legal/epl-v20.html
SPDX-License-Identifier: EPL-2.0
<configuration xmlns:xsi="http://www.w3.org/2001/XMLSchema-instance" xsi:noNamespaceSchemaLocation="http://sumo.dlr.de/xsd/netconvertConfiguration.xsd">

    <input>
        <sumo-net-file value="input_net.net.xml"/>
    </input>

    <output>
        <write-license value="true"/>
        <output-file value="net.net.xml"/>
    </output>

    <processing>
        <geometry.remove value="true"/>
        <geometry.min-radius.fix.railways value="false"/>
        <geometry.max-grade.fix value="false"/>
        <offset.disable-normalization value="true"/>
        <lefthand value="false"/>
    </processing>

    <junctions>
        <no-internal-links value="true"/>
        <no-turnarounds value="true"/>
        <junctions.corner-detail value="0"/>
        <junctions.limit-turn-speed value="-1"/>
        <rectangular-lane-cut value="false"/>
    </junctions>

    <pedestrian>
        <walkingareas value="false"/>
    </pedestrian>

    <report>
        <xml-validation value="never"/>
        <aggregate-warnings value="5"/>
    </report>

</configuration>
-->

<net version="1.6" xmlns:xsi="http://www.w3.org/2001/XMLSchema-instance" xsi:noNamespaceSchemaLocation="http://sumo.dlr.de/xsd/net_file.xsd">

    <location netOffset="-410353.63,-6369087.60" convBoundary="949.81,707.32,2285.56,1653.21" origBoundary="-4.511842,57.454194,-4.409236,57.502622" projParameter="+proj=utm +zone=30 +ellps=WGS84 +datum=WGS84 +units=m +no_defs"/>

    <edge id="-143878730#0" from="1000236940" to="26910797" priority="9" type="highway.primary" shape="1074.17,1637.73 1081.66,1638.71 1181.43,1652.68 1195.68,1653.21 1212.09,1652.27 1222.35,1651.10 1234.21,1648.99 1286.90,1636.50 1406.24,1610.31 1673.18,1556.36 1726.54,1543.14 1771.41,1525.92 1959.77,1441.07 1979.84,1430.93 1987.54,1426.59 1997.40,1420.99 2017.52,1407.98 2047.61,1386.76 2057.18,1378.28 2070.33,1365.88 2081.51,1353.52 2096.28,1328.55 2106.10,1300.36 2122.70,1233.55 2136.80,1166.08 2149.64,1099.30 2160.96,1031.76 2207.76,840.14 2226.26,791.52 2247.57,754.92 2285.56,707.32">
        <lane id="-143878730#0_0" index="0" speed="26.82" length="1756.27" shape="1074.52,1636.16 1081.87,1637.12 1181.57,1651.08 1195.66,1651.61 1211.95,1650.68 1222.12,1649.52 1233.89,1647.42 1286.54,1634.94 1405.91,1608.74 1672.83,1554.80 1726.06,1541.61 1770.79,1524.44 1959.08,1439.63 1979.09,1429.52 1986.75,1425.20 1996.57,1419.62 2016.62,1406.65 2046.62,1385.50 2056.10,1377.10 2069.19,1364.76 2080.22,1352.57 2094.82,1327.87 2104.56,1299.90 2121.14,1233.19 2135.23,1165.77 2148.07,1099.02 2159.39,1031.44 2206.23,839.66 2224.81,790.83 2246.25,754.01 2284.31,706.32"/>
    </edge>
    <edge id="-143878730#1" from="1574468867" to="1000236940" priority="9" type="highway.primary" shape="949.81,1631.16 955.93,1629.63 965.70,1627.85 980.71,1627.91 992.72,1628.68 1016.56,1630.99 1042.40,1633.83 1074.17,1637.73">
        <lane id="-143878730#1_0" index="0" speed="26.82" length="125.24" shape="949.42,1629.61 955.59,1628.07 965.56,1626.25 980.76,1626.31 992.85,1627.08 1016.72,1629.40 1042.58,1632.24 1074.22,1636.12"/>
    </edge>
    <edge id="143878730#1" from="1000236940" to="1574468867" priority="9" type="highway.primary" shape="1074.17,1637.73 1042.40,1633.83 1016.56,1630.99 992.72,1628.68 980.71,1627.91 965.70,1627.85 955.93,1629.63 949.81,1631.16">
        <lane id="143878730#1_0" index="0" speed="26.82" length="125.24" shape="1073.83,1639.30 1042.22,1635.42 1016.40,1632.58 992.59,1630.28 980.66,1629.51 965.84,1629.45 956.27,1631.19 950.20,1632.71"/>
    </edge>
    <edge id="53332519#0" from="26910797" to="1000236940" priority="9" type="highway.primary" shape="2285.56,707.32 2247.57,754.92 2226.26,791.52 2207.76,840.14 2160.96,1031.76 2149.64,1099.30 2136.80,1166.08 2122.70,1233.55 2106.10,1300.36 2096.28,1328.55 2081.51,1353.52 2070.33,1365.88 2057.18,1378.28 2047.61,1386.76 2017.52,1407.98 1997.40,1420.99 1987.54,1426.59 1979.84,1430.93 1959.77,1441.07 1771.41,1525.92 1726.54,1543.14 1673.18,1556.36 1406.24,1610.31 1286.90,1636.50 1234.21,1648.99 1222.35,1651.10 1212.09,1652.27 1195.68,1653.21 1181.43,1652.68 1081.66,1638.71 1074.17,1637.73">
        <lane id="53332519#0_0" index="0" speed="26.82" length="1756.27" shape="2286.81,708.32 2248.89,755.83 2227.71,792.21 2209.29,840.62 2162.53,1032.08 2151.21,1099.58 2138.37,1166.39 2124.26,1233.91 2107.64,1300.82 2097.74,1329.23 2082.80,1354.47 2071.47,1367.00 2058.26,1379.46 2048.60,1388.02 2018.42,1409.31 1998.23,1422.36 1988.33,1427.98 1980.59,1432.34 1960.46,1442.51 1772.03,1527.40 1727.02,1544.67 1673.53,1557.92 1406.57,1611.88 1287.26,1638.06 1234.53,1650.56 1222.58,1652.68 1212.23,1653.86 1195.70,1654.81 1181.29,1654.28 1081.44,1640.29 1074.11,1639.34"/>
    </edge>

    <tlLogic id="1000236940" type="static" programID="0" offset="0">
        <phase duration="31" state="GggrrrGGg"/>
        <phase duration="8"  state="yggrrryyg"/>
        <phase duration="6"  state="rGGrrrrrG"/>
        <phase duration="8"  state="ryyrrrrry"/>
        <phase duration="31" state="rrrGGgGrr"/>
        <phase duration="8"  state="rrryyyyrr"/>
    </tlLogic>

    <junction id="1000236940" type="traffic_light" x="1074.17" y="1637.73" incLanes="53332519#0_0 -143878730#1_0" intLanes="" shape="1073.90,1640.92 1074.73,1634.58 1074.41,1634.54 1073.63,1640.89">
        <request index="0" response="0000" foes="1000"/>
        <request index="1" response="0100" foes="0100"/>
        <request index="2" response="0000" foes="0010"/>
        <request index="3" response="0001" foes="0001"/>
    </junction>
    <junction id="1574468867" type="priority" x="949.81" y="1631.16" incLanes="143878730#1_0" intLanes="" shape="949.81,1631.16 950.59,1634.26 949.81,1631.16">
        <request index="0" response="0" foes="0"/>
    </junction>
    <junction id="26910797" type="priority" x="2285.56" y="707.32" incLanes="-143878730#0_0" intLanes="" shape="2285.56,707.32 2283.06,705.32 2285.56,707.32">
        <request index="0" response="0" foes="0"/>
    </junction>

    <connection from="-143878730#0" to="53332519#0" fromLane="0" toLane="0" dir="t" state="M"/>
    <connection from="-143878730#1" to="-143878730#0" fromLane="0" toLane="0" tl="1000236940" linkIndex="7" dir="s" state="O"/>
    <connection from="-143878730#1" to="143878730#1" fromLane="0" toLane="0" tl="1000236940" linkIndex="8" dir="t" state="o"/>
    <connection from="143878730#1" to="-143878730#1" fromLane="0" toLane="0" dir="t" state="M"/>
    <connection from="53332519#0" to="143878730#1" fromLane="0" toLane="0" tl="1000236940" linkIndex="0" dir="s" state="O"/>
    <connection from="53332519#0" to="-143878730#0" fromLane="0" toLane="0" tl="1000236940" linkIndex="2" dir="t" state="o"/>

</net>
