<?xml version="1.0" encoding="UTF-8"?>

<!-- generated on 2022-03-03 16:54:32 by Eclipse SUMO netedit Version v1_12_0+1120-8ddf4e10651
-->

<additional xmlns:xsi="http://www.w3.org/2001/XMLSchema-instance" xsi:noNamespaceSchemaLocation="http://sumo.dlr.de/xsd/additional_file.xsd">
    <!-- StoppingPlaces -->
    <busStop id="bs_0" lane="gneE0_0" startPos="16.00" endPos="26.00"/>
    <!-- Shapes -->
    <poly id="po_0" color="red" fill="0" layer="0.00" shape="2.000000,18.000000 2.000000,24.000000 -4.000000,24.000000 -4.000000,18.000000 2.000000,18.000000"/>
</additional>
