<?xml version="1.0" encoding="UTF-8"?>

<!-- generated on 2022-04-28 14:15:12 by Eclipse SUMO netconvert Version v1_12_0+2358-3780045
<configuration xmlns:xsi="http://www.w3.org/2001/XMLSchema-instance" xsi:noNamespaceSchemaLocation="http://sumo.dlr.de/xsd/netconvertConfiguration.xsd">

    <input>
        <sumo-net-file value="input_net2.net.xml"/>
    </input>

    <output>
        <plain-output-prefix value="input_plain"/>
        <output.street-names value="true"/>
    </output>

    <projection>
        <proj.plain-geo value="true"/>
    </projection>

    <processing>
        <geometry.min-radius.fix.railways value="false"/>
        <geometry.max-grade.fix value="false"/>
        <offset.disable-normalization value="true"/>
        <lefthand value="false"/>
    </processing>

    <junctions>
        <no-turnarounds value="true"/>
        <junctions.corner-detail value="5"/>
        <junctions.limit-turn-speed value="5.5"/>
        <rectangular-lane-cut value="false"/>
    </junctions>

    <pedestrian>
        <walkingareas value="false"/>
    </pedestrian>

    <report>
        <aggregate-warnings value="5"/>
    </report>

</configuration>
-->

<nodes version="1.9" xmlns:xsi="http://www.w3.org/2001/XMLSchema-instance" xsi:noNamespaceSchemaLocation="http://sumo.dlr.de/xsd/nodes_file.xsd">
    <node id="32444585" x="13.613550" y="52.369442" type="dead_end"/>
    <node id="56455689" x="13.616469" y="52.367944" type="priority"/>
    <node id="cluster_32444587_6273887394" x="13.614720" y="52.367657" type="priority"/>
    <node id="cluster_32444589_4396212913" x="13.616962" y="52.367338" type="priority"/>
</nodes>
