<?xml version="1.0" encoding="UTF-8"?>

<!-- generated on 05/19/17 17:09:56 by SUMO duarouter Version dev-SVN-r24356
<?xml version="1.0" encoding="UTF-8"?>

<configuration xmlns:xsi="http://www.w3.org/2001/XMLSchema-instance" xsi:noNamespaceSchemaLocation="http://sumo.dlr.de/xsd/duarouterConfiguration.xsd">

    <input>
        <net-file value="input_net.net.xml"/>
        <flow-files value="input_flows.flows.xml"/>
    </input>

    <output>
        <output-file value="routes.rou.xml"/>
    </output>

    <report>
        <xml-validation value="never"/>
        <no-step-log value="true"/>
    </report>

</configuration>
-->

<routes xmlns:xsi="http://www.w3.org/2001/XMLSchema-instance" xsi:noNamespaceSchemaLocation="http://sumo.dlr.de/xsd/routes_file.xsd">
    <vType id="0">
        <carFollowing-Krauss accel="100"/>
    </vType>
    <vehicle id="0.0" type="0" depart="0.00">
        <routeDistribution last="0">
            <route cost="125.90" probability="1.00000000" edges="beg middle end rend"/>
        </routeDistribution>
    </vehicle>
    <vType id="1">
        <carFollowing-Krauss decel="100"/>
    </vType>
    <vehicle id="1.0" type="1" depart="10.00" color="black">
        <routeDistribution last="0">
            <route cost="125.90" probability="1.00000000" edges="beg middle end rend"/>
        </routeDistribution>
    </vehicle>
    <vType id="2">
        <carFollowing-Krauss sigma="1.00"/>
    </vType>
    <vehicle id="2.0" type="2" depart="11.00" color="magenta">
        <routeDistribution last="0">
            <route cost="125.90" probability="1.00000000" edges="beg middle end rend"/>
        </routeDistribution>
    </vehicle>
    <vType id="3" length="100.00"/>
    <vehicle id="3.0" type="3" depart="20.00" departPos="0.00">
        <routeDistribution last="0">
            <route cost="125.90" probability="1.00000000" edges="beg middle end rend"/>
        </routeDistribution>
    </vehicle>
    <vType id="4" minGap="100.00"/>
    <vehicle id="4.0" type="4" depart="21.00" departPos="10.00">
        <routeDistribution last="0">
            <route cost="125.90" probability="1.00000000" edges="beg middle end rend"/>
        </routeDistribution>
    </vehicle>
    <vType id="5" maxSpeed="100.00"/>
    <vehicle id="5.0" type="5" depart="22.00" departPos="free">
        <routeDistribution last="0">
            <route cost="125.90" probability="1.00000000" edges="beg middle end rend"/>
        </routeDistribution>
    </vehicle>
    <vType id="6" color="black"/>
    <vehicle id="6.0" type="6" depart="23.00" departPos="random">
        <routeDistribution last="0">
            <route cost="125.90" probability="1.00000000" edges="beg middle end rend"/>
        </routeDistribution>
    </vehicle>
    <vType id="7" vClass="bus"/>
    <vehicle id="7.0" type="7" depart="30.00" departLane="0">
        <routeDistribution last="0">
            <route cost="125.94" probability="1.00000000" edges="beg middle end rend"/>
        </routeDistribution>
    </vehicle>
    <vType id="8" emissionClass="HBEFA2/P_7_1"/>
    <vehicle id="8.0" type="8" depart="31.00" departLane="1">
        <routeDistribution last="0">
            <route cost="125.90" probability="1.00000000" edges="beg middle end rend"/>
        </routeDistribution>
    </vehicle>
    <vType id="9" guiShape="passenger/hatchback"/>
    <vehicle id="9.0" type="9" depart="32.00" departLane="random">
        <routeDistribution last="0">
            <route cost="125.90" probability="1.00000000" edges="beg middle end rend"/>
        </routeDistribution>
    </vehicle>
    <vType id="10" width="100.00"/>
    <vehicle id="10.0" type="10" depart="33.00" departLane="free">
        <routeDistribution last="0">
            <route cost="125.90" probability="1.00000000" edges="beg middle end rend"/>
        </routeDistribution>
    </vehicle>
    <vType id="11" speedFactor="1.20"/>
    <vehicle id="11.0" type="11" depart="34.00">
        <routeDistribution last="0">
            <route cost="104.92" probability="1.00000000" edges="beg middle end rend"/>
        </routeDistribution>
    </vehicle>
    <vType id="12" speedFactor="normc(1.00,0.20,0.20,2.00)"/>
    <vehicle id="12.0" type="12" depart="35.00">
        <routeDistribution last="0">
            <route cost="125.90" probability="1.00000000" edges="beg middle end rend"/>
        </routeDistribution>
    </vehicle>
    <vType id="13" speedFactor="normc(0.90,0.20,0.20,2.00)"/>
    <vehicle id="13.0" type="13" depart="36.00">
        <routeDistribution last="0">
            <route cost="139.89" probability="1.00000000" edges="beg middle end rend"/>
        </routeDistribution>
    </vehicle>
    <vType id="14" speedFactor="normc(0.90,0.20)"/>
    <vehicle id="14.0" type="14" depart="36.00">
        <routeDistribution last="0">
            <route cost="139.89" probability="1.00000000" edges="beg middle end rend"/>
        </routeDistribution>
    </vehicle>
    <vType id="15" speedFactor="normc(0.90,0.20,0.10)"/>
    <vehicle id="15.0" type="15" depart="36.00">
        <routeDistribution last="0">
            <route cost="139.89" probability="1.00000000" edges="beg middle end rend"/>
        </routeDistribution>
    </vehicle>
    <vType id="16" speedFactor="0.90"/>
    <vehicle id="16.0" type="16" depart="36.00">
        <routeDistribution last="0">
            <route cost="139.89" probability="1.00000000" edges="beg middle end rend"/>
        </routeDistribution>
    </vehicle>
</routes>
