<?xml version="1.0"?>

<!-- generated on 09/30/11 17:40:02 by SUMO duarouter Version dev-SVN-r11321
<?xml version="1.0" encoding="iso-8859-1"?>

<configuration xmlns:xsi="http://www.w3.org/2001/XMLSchema-instance" xsi:noNamespaceSchemaLocation="http://sumo.sf.net/xsd/duarouterConfiguration.xsd">

    <input>
        <net-file value="input_net.net.xml"/>
        <flow-files value="input_flows.flows.xml"/>
    </input>

    <output>
        <output-file value="routes.rou.xml"/>
    </output>

</configuration>
-->

<routes xmlns:xsi="http://www.w3.org/2001/XMLSchema-instance" xsi:noNamespaceSchemaLocation="http://sumo.sf.net/xsd/routes_file.xsd">
    <vType id="0">
        <carFollowing-Krauss accel="100.00"/>
    </vType>
    <vehicle id="0_0" type="0" depart="0.00">
        <route edges="beg middle end rend"/>
    </vehicle>
    <vType id="1">
        <carFollowing-Krauss decel="100.00"/>
    </vType>
    <vehicle id="1_0" type="1" depart="10.00" color="0.00,0.00,0.00">
        <route color="0.00,0.00,0.00" edges="beg middle end rend"/>
    </vehicle>
    <vType id="2">
        <carFollowing-Krauss sigma="1.00"/>
    </vType>
    <vehicle id="2_0" type="2" depart="11.00" color="1.00,0.00,1.00">
        <route color="1.00,0.00,1.00" edges="beg middle end rend"/>
    </vehicle>
    <vType id="3" length="100.00"/>
    <vehicle id="3_0" type="3" depart="20.00" departPos="0.00">
        <route edges="beg middle end rend"/>
    </vehicle>
    <vType id="4" minGap="100.00"/>
    <vehicle id="4_0" type="4" depart="21.00" departPos="10.00">
        <route edges="beg middle end rend"/>
    </vehicle>
    <vType id="5" maxSpeed="100.00"/>
    <vehicle id="5_0" type="5" depart="22.00" departPos="free">
        <route edges="beg middle end rend"/>
    </vehicle>
    <vType id="6" color="0.00,0.00,0.00"/>
    <vehicle id="6_0" type="6" depart="23.00" departPos="random">
        <route edges="beg middle end rend"/>
    </vehicle>
    <vType id="7" vClass="bus"/>
    <vehicle id="7_0" type="7" depart="30.00" departLane="0">
        <route edges="beg middle end rend"/>
    </vehicle>
    <vType id="8" emissionClass="P_7_0"/>
    <vehicle id="8_0" type="8" depart="31.00" departLane="1">
        <route edges="beg middle end rend"/>
    </vehicle>
    <vType id="9" guiShape="passenger/hatchback"/>
    <vehicle id="9_0" type="9" depart="32.00" departLane="random">
        <route edges="beg middle end rend"/>
    </vehicle>
    <vType id="10" width="100.00"/>
    <vehicle id="10_0" type="10" depart="33.00" departLane="free">
        <route edges="beg middle end rend"/>
    </vehicle>
</routes>
