<?xml version="1.0" encoding="UTF-8"?>

<!-- generated on 2022-04-27 10:00:27 by Eclipse SUMO netedit Version v1_12_0+2297-67f74db4f89
-->

<routes xmlns:xsi="http://www.w3.org/2001/XMLSchema-instance" xsi:noNamespaceSchemaLocation="http://sumo.dlr.de/xsd/routes_file.xsd">
    <!-- Routes -->
    <route id="routeA" edges="gneE0 gneE1" color="yellow"/>
    <route id="routeB" edges="gneE1" color="orange"/>
    <!-- Vehicles, persons and containers (sorted by depart) -->
    <flow id="routeFlowA" begin="0.00" route="routeA" end="3600.00" number="18">
        <stop lane="gneE1_1" startPos="7.00" endPos="17.00" speed="30.00"/>
        <stop lane="gneE1_1" startPos="8.00" endPos="17.00" speed="30.00"/>
        <stop lane="gneE1_1" startPos="9.00" endPos="17.00" speed="30.00"/>
        <stop lane="gneE1_1" startPos="10.00" endPos="17.00" speed="30.00"/>
        <stop lane="gneE1_1" startPos="11.00" endPos="17.00" speed="30.00"/>
    </flow>
    <flow id="routeFlowB" begin="0.00" route="routeB" end="3600.00" number="18">
        <stop lane="gneE1_1" startPos="7.00" endPos="17.00" speed="20.00"/>
        <stop lane="gneE1_1" startPos="8.00" endPos="17.00" speed="20.00"/>
        <stop lane="gneE1_1" startPos="9.00" endPos="17.00" speed="20.00"/>
        <stop lane="gneE1_1" startPos="10.00" endPos="17.00" speed="20.00"/>
        <stop lane="gneE1_1" startPos="11.00" endPos="17.00" speed="20.00"/>
    </flow>
</routes>
