<?xml version="1.0" encoding="UTF-8"?>

<!-- generated on 2023-11-06 15:27:47 by Eclipse SUMO netedit Version v1_18_0+2440-94ba841a93d
-->

<routes xmlns:xsi="http://www.w3.org/2001/XMLSchema-instance" xsi:noNamespaceSchemaLocation="http://sumo.dlr.de/xsd/routes_file.xsd">
    <!-- Routes -->
    <route id="routeA" edges="Edge0 Edge1 Edge2" color="yellow"/>
    <!-- Vehicles, persons and containers (sorted by depart) -->
    <flow id="routeFlowA" begin="0.00" route="routeA" end="3600.00" number="18"/>
</routes>
