<?xml version="1.0" encoding="UTF-8"?>

<!-- generated on Tue Feb 19 09:11:26 2019 by Eclipse SUMO netconvert Version v1_1_0+0919-80296dbfce
<configuration xmlns:xsi="http://www.w3.org/2001/XMLSchema-instance" xsi:noNamespaceSchemaLocation="http://sumo.dlr.de/xsd/netconvertConfiguration.xsd">

    <input>
        <node-files value=".\netedit\netElements\lanes\contextual_menu\transform_restricted_lane\bikelane\input_net.nod.xml"/>
        <edge-files value=".\netedit\netElements\lanes\contextual_menu\transform_restricted_lane\bikelane\input_net.edg.xml"/>
        <connection-files value=".\netedit\netElements\lanes\contextual_menu\transform_restricted_lane\bikelane\input_net.con.xml"/>
    </input>

    <output>
        <output-file value=".\netedit\netElements\lanes\contextual_menu\transform_restricted_lane\bikelane\input_net.net.xml"/>
    </output>

    <report>
        <verbose value="true"/>
    </report>

</configuration>
-->

<net version="1.1" junctionCornerDetail="5" limitTurnSpeed="5.50" xmlns:xsi="http://www.w3.org/2001/XMLSchema-instance" xsi:noNamespaceSchemaLocation="http://sumo.dlr.de/xsd/net_file.xsd">

    <location netOffset="25.00,0.00" convBoundary="0.00,0.00,50.00,20.00" origBoundary="-10000000000.00,-10000000000.00,10000000000.00,10000000000.00" projParameter="!"/>

    <edge id=":gneJ0_0" function="internal">
        <lane id=":gneJ0_0_0" index="0" speed="6.08" length="7.74" shape="-1.60,3.20 -1.30,1.10 -0.40,-0.40 1.10,-1.30 3.20,-1.60"/>
    </edge>
    <edge id=":gneJ0_1" function="internal">
        <lane id=":gneJ0_1_0" index="0" speed="3.90" length="2.58" shape="3.20,1.60 2.50,1.70 2.00,2.00 1.70,2.50 1.60,3.20"/>
    </edge>
    <edge id=":gneJ0_2" function="internal">
        <lane id=":gneJ0_2_0" index="0" speed="3.65" length="2.08" shape="3.20,1.60 2.00,0.80 1.71,0.23"/>
    </edge>
    <edge id=":gneJ0_3" function="internal">
        <lane id=":gneJ0_3_0" index="0" speed="3.65" length="2.59" shape="1.71,0.23 1.60,-0.00 2.00,-0.80 3.20,-1.60"/>
    </edge>
    <edge id=":gneJ0_w0" function="walkingarea">
        <lane id=":gneJ0_w0_0" index="0" allow="pedestrian" speed="1.00" length="4.26" width="3.20" shape="-3.20,3.20 0.00,3.20 0.00,3.20 3.20,3.20 3.20,3.20 3.20,0.00 3.20,0.00 3.20,-3.20 -3.02,1.24 -2.49,-0.36 -1.60,-1.60 -0.36,-2.49 1.24,-3.02"/>
    </edge>
    <edge id=":gneJ1_0" function="internal">
        <lane id=":gneJ1_0_0" index="0" speed="3.90" length="2.58" shape="48.40,3.20 48.30,2.50 48.00,2.00 47.50,1.70 46.80,1.60"/>
    </edge>
    <edge id=":gneJ1_1" function="internal">
        <lane id=":gneJ1_1_0" index="0" speed="6.08" length="7.74" shape="46.80,-1.60 48.90,-1.30 50.40,-0.40 51.30,1.10 51.60,3.20"/>
    </edge>
    <edge id=":gneJ1_2" function="internal">
        <lane id=":gneJ1_2_0" index="0" speed="3.65" length="2.66" shape="46.80,-1.60 48.00,-0.80 48.40,0.00 48.26,0.29"/>
    </edge>
    <edge id=":gneJ1_3" function="internal">
        <lane id=":gneJ1_3_0" index="0" speed="3.65" length="2.01" shape="48.26,0.29 48.00,0.80 46.80,1.60"/>
    </edge>
    <edge id=":gneJ1_w0" function="walkingarea">
        <lane id=":gneJ1_w0_0" index="0" allow="pedestrian" speed="1.00" length="4.26" width="3.20" shape="46.80,3.20 50.00,3.20 50.00,3.20 53.20,3.20 46.80,-3.20 46.80,0.00 46.80,0.00 46.80,3.20"/>
    </edge>
    <edge id=":gneJ2_0" function="internal">
        <lane id=":gneJ2_0_0" index="0" speed="3.90" length="2.58" shape="1.60,16.80 1.70,17.50 2.00,18.00 2.50,18.30 3.20,18.40"/>
    </edge>
    <edge id=":gneJ2_c0" function="crossing" crossingEdges="gneE2 -gneE2">
        <lane id=":gneJ2_c0_0" index="0" allow="pedestrian" speed="1.00" length="6.40" width="4.00" shape="1.20,16.80 1.20,23.20"/>
    </edge>
    <edge id=":gneJ2_c1" function="crossing" crossingEdges="gneE8 gneE9">
        <lane id=":gneJ2_c1_0" index="0" allow="pedestrian" speed="1.00" length="6.40" width="4.00" shape="-3.20,18.80 3.20,18.80"/>
    </edge>
    <edge id=":gneJ2_w0" function="walkingarea">
        <lane id=":gneJ2_w0_0" index="0" allow="pedestrian" speed="1.00" length="4.26" width="3.20" shape="3.20,23.20 3.20,20.00 3.20,20.00 3.20,16.80 3.20,16.80 0.00,16.80 0.00,16.80 -3.20,16.80 1.24,23.02 -0.36,22.49 -1.60,21.60 -2.49,20.36 -3.02,18.76"/>
    </edge>
    <edge id=":gneJ2_w1" function="walkingarea">
        <lane id=":gneJ2_w1_0" index="0" allow="pedestrian" speed="1.00" length="6.22" width="4.00" shape="-0.80,23.20 3.20,23.20 -3.20,16.80 -3.20,20.80"/>
    </edge>
    <edge id=":gneJ2_w2" function="walkingarea">
        <lane id=":gneJ2_w2_0" index="0" allow="pedestrian" speed="1.00" length="2.83" width="4.00" shape="3.20,20.80 3.20,16.80 3.20,16.80 -0.80,16.80"/>
    </edge>
    <edge id=":gneJ3_0" function="internal">
        <lane id=":gneJ3_0_0" index="0" speed="6.08" length="7.74" shape="51.60,16.80 51.30,18.90 50.40,20.40 48.90,21.30 46.80,21.60"/>
    </edge>
    <edge id=":gneJ3_c0" function="crossing" crossingEdges="gneE4 gneE5">
        <lane id=":gneJ3_c0_0" index="0" allow="pedestrian" speed="1.00" length="6.40" width="4.00" shape="46.80,18.80 53.20,18.80"/>
    </edge>
    <edge id=":gneJ3_c1" function="crossing" crossingEdges="-gneE2 gneE2">
        <lane id=":gneJ3_c1_0" index="0" allow="pedestrian" speed="1.00" length="6.40" width="4.00" shape="48.80,23.20 48.80,16.80"/>
    </edge>
    <edge id=":gneJ3_w0" function="walkingarea">
        <lane id=":gneJ3_w0_0" index="0" allow="pedestrian" speed="1.00" length="4.26" width="3.20" shape="53.20,16.80 50.00,16.80 50.00,16.80 46.80,16.80 46.80,16.80 46.80,20.00 46.80,20.00 46.80,23.20 53.02,18.76 52.49,20.36 51.60,21.60 50.36,22.49 48.76,23.02"/>
    </edge>
    <edge id=":gneJ3_w1" function="walkingarea">
        <lane id=":gneJ3_w1_0" index="0" allow="pedestrian" speed="1.00" length="6.22" width="4.00" shape="53.20,20.80 53.20,16.80 46.80,23.20 50.80,23.20"/>
    </edge>
    <edge id=":gneJ3_w2" function="walkingarea">
        <lane id=":gneJ3_w2_0" index="0" allow="pedestrian" speed="1.00" length="2.83" width="4.00" shape="50.80,16.80 46.80,16.80 46.80,16.80 46.80,20.80"/>
    </edge>

    <edge id="-gneE2" from="gneJ3" to="gneJ2" priority="1">
        <lane id="-gneE2_0" index="0" speed="13.89" length="43.60" shape="46.80,21.60 3.20,21.60"/>
    </edge>
    <edge id="gneE0" from="gneJ0" to="gneJ1" priority="1">
        <lane id="gneE0_0" index="0" speed="13.89" length="43.60" shape="3.20,-1.60 46.80,-1.60"/>
    </edge>
    <edge id="gneE1" from="gneJ1" to="gneJ0" priority="1">
        <lane id="gneE1_0" index="0" speed="13.89" length="43.60" shape="46.80,1.60 3.20,1.60"/>
    </edge>
    <edge id="gneE2" from="gneJ2" to="gneJ3" priority="1">
        <lane id="gneE2_0" index="0" speed="13.89" length="43.60" shape="3.20,18.40 46.80,18.40"/>
    </edge>
    <edge id="gneE4" from="gneJ3" to="gneJ1" priority="1">
        <lane id="gneE4_0" index="0" speed="13.89" length="13.60" shape="48.40,16.80 48.40,3.20"/>
    </edge>
    <edge id="gneE5" from="gneJ1" to="gneJ3" priority="1">
        <lane id="gneE5_0" index="0" speed="13.89" length="13.60" shape="51.60,3.20 51.60,16.80"/>
    </edge>
    <edge id="gneE8" from="gneJ2" to="gneJ0" priority="1">
        <lane id="gneE8_0" index="0" speed="13.89" length="13.60" shape="-1.60,16.80 -1.60,3.20"/>
    </edge>
    <edge id="gneE9" from="gneJ0" to="gneJ2" priority="1">
        <lane id="gneE9_0" index="0" speed="13.89" length="13.60" shape="1.60,3.20 1.60,16.80"/>
    </edge>

    <junction id="gneJ0" type="priority" x="0.00" y="0.00" incLanes="gneE8_0 gneE1_0" intLanes=":gneJ0_0_0 :gneJ0_1_0 :gneJ0_3_0" shape="-3.20,3.20 3.20,3.20 3.20,-3.20 -0.36,-2.49 -1.60,-1.60 -2.49,-0.36 -3.02,1.24">
        <request index="0" response="000" foes="100" cont="0"/>
        <request index="1" response="000" foes="000" cont="0"/>
        <request index="2" response="001" foes="001" cont="1"/>
    </junction>
    <junction id="gneJ1" type="priority" x="50.00" y="0.00" incLanes="gneE4_0 gneE0_0" intLanes=":gneJ1_0_0 :gneJ1_1_0 :gneJ1_3_0" shape="46.80,3.20 53.20,3.20 52.49,-0.36 51.60,-1.60 50.36,-2.49 48.76,-3.02 46.80,-3.20">
        <request index="0" response="000" foes="100" cont="0"/>
        <request index="1" response="000" foes="000" cont="0"/>
        <request index="2" response="001" foes="001" cont="1"/>
    </junction>
    <junction id="gneJ2" type="priority" x="0.00" y="20.00" incLanes="-gneE2_0 gneE9_0 :gneJ2_w2_0 :gneJ2_w1_0" intLanes=":gneJ2_0_0 :gneJ2_c0_0 :gneJ2_c1_0" shape="3.20,23.20 3.20,16.80 -3.20,16.80 -2.49,20.36 -1.60,21.60 -0.36,22.49 1.24,23.02">
        <request index="0" response="010" foes="110" cont="0"/>
        <request index="1" response="000" foes="001" cont="0"/>
        <request index="2" response="001" foes="001" cont="0"/>
    </junction>
    <junction id="gneJ3" type="priority" x="50.00" y="20.00" incLanes="gneE5_0 gneE2_0 :gneJ3_w2_0 :gneJ3_w1_0" intLanes=":gneJ3_0_0 :gneJ3_c0_0 :gneJ3_c1_0" shape="53.20,16.80 46.80,16.80 46.80,23.20 50.36,22.49 51.60,21.60 52.49,20.36 53.02,18.76">
        <request index="0" response="100" foes="110" cont="0"/>
        <request index="1" response="001" foes="001" cont="0"/>
        <request index="2" response="000" foes="001" cont="0"/>
    </junction>

    <junction id=":gneJ0_3_0" type="internal" x="1.71" y="0.23" incLanes=":gneJ0_2_0 gneE8_0" intLanes=":gneJ0_0_0"/>
    <junction id=":gneJ1_3_0" type="internal" x="48.26" y="0.29" incLanes=":gneJ1_2_0 gneE4_0" intLanes=":gneJ1_0_0"/>

    <connection from="gneE0" to="gneE5" fromLane="0" toLane="0" via=":gneJ1_1_0" dir="l" state="M"/>
    <connection from="gneE0" to="gneE1" fromLane="0" toLane="0" via=":gneJ1_2_0" dir="t" state="m"/>
    <connection from="gneE1" to="gneE9" fromLane="0" toLane="0" via=":gneJ0_1_0" dir="r" state="M"/>
    <connection from="gneE1" to="gneE0" fromLane="0" toLane="0" via=":gneJ0_2_0" dir="t" state="m"/>
    <connection from="gneE4" to="gneE1" fromLane="0" toLane="0" via=":gneJ1_0_0" dir="r" state="M"/>
    <connection from="gneE5" to="-gneE2" fromLane="0" toLane="0" via=":gneJ3_0_0" dir="l" state="m"/>
    <connection from="gneE8" to="gneE0" fromLane="0" toLane="0" via=":gneJ0_0_0" dir="l" state="M"/>
    <connection from="gneE9" to="gneE2" fromLane="0" toLane="0" via=":gneJ2_0_0" dir="r" state="m"/>

    <connection from=":gneJ0_0" to="gneE0" fromLane="0" toLane="0" dir="l" state="M"/>
    <connection from=":gneJ0_1" to="gneE9" fromLane="0" toLane="0" dir="r" state="M"/>
    <connection from=":gneJ0_2" to="gneE0" fromLane="0" toLane="0" via=":gneJ0_3_0" dir="t" state="m"/>
    <connection from=":gneJ0_3" to="gneE0" fromLane="0" toLane="0" dir="t" state="M"/>
    <connection from=":gneJ1_0" to="gneE1" fromLane="0" toLane="0" dir="r" state="M"/>
    <connection from=":gneJ1_1" to="gneE5" fromLane="0" toLane="0" dir="l" state="M"/>
    <connection from=":gneJ1_2" to="gneE1" fromLane="0" toLane="0" via=":gneJ1_3_0" dir="t" state="m"/>
    <connection from=":gneJ1_3" to="gneE1" fromLane="0" toLane="0" dir="t" state="M"/>
    <connection from=":gneJ2_0" to="gneE2" fromLane="0" toLane="0" dir="r" state="M"/>
    <connection from=":gneJ3_0" to="-gneE2" fromLane="0" toLane="0" dir="l" state="M"/>

    <connection from=":gneJ0_w0" to="gneE9" fromLane="0" toLane="0" dir="s" state="M"/>
    <connection from=":gneJ0_w0" to="gneE0" fromLane="0" toLane="0" dir="s" state="M"/>
    <connection from="gneE8" to=":gneJ0_w0" fromLane="0" toLane="0" dir="s" state="M"/>
    <connection from="gneE1" to=":gneJ0_w0" fromLane="0" toLane="0" dir="s" state="M"/>
    <connection from=":gneJ1_w0" to="gneE5" fromLane="0" toLane="0" dir="s" state="M"/>
    <connection from=":gneJ1_w0" to="gneE1" fromLane="0" toLane="0" dir="s" state="M"/>
    <connection from="gneE4" to=":gneJ1_w0" fromLane="0" toLane="0" dir="s" state="M"/>
    <connection from="gneE0" to=":gneJ1_w0" fromLane="0" toLane="0" dir="s" state="M"/>
    <connection from=":gneJ2_c0" to=":gneJ2_w1" fromLane="0" toLane="0" dir="s" state="M"/>
    <connection from=":gneJ2_c1" to=":gneJ2_w2" fromLane="0" toLane="0" dir="s" state="M"/>
    <connection from=":gneJ2_w0" to="gneE2" fromLane="0" toLane="0" dir="s" state="M"/>
    <connection from=":gneJ2_w0" to="gneE8" fromLane="0" toLane="0" dir="s" state="M"/>
    <connection from="-gneE2" to=":gneJ2_w0" fromLane="0" toLane="0" dir="s" state="M"/>
    <connection from="gneE9" to=":gneJ2_w0" fromLane="0" toLane="0" dir="s" state="M"/>
    <connection from=":gneJ2_w1" to=":gneJ2_c1" fromLane="0" toLane="0" dir="s" state="m"/>
    <connection from=":gneJ2_w2" to=":gneJ2_c0" fromLane="0" toLane="0" dir="s" state="m"/>
    <connection from=":gneJ3_c0" to=":gneJ3_w1" fromLane="0" toLane="0" dir="s" state="M"/>
    <connection from=":gneJ3_c1" to=":gneJ3_w2" fromLane="0" toLane="0" dir="s" state="M"/>
    <connection from=":gneJ3_w0" to="gneE4" fromLane="0" toLane="0" dir="s" state="M"/>
    <connection from=":gneJ3_w0" to="-gneE2" fromLane="0" toLane="0" dir="s" state="M"/>
    <connection from="gneE5" to=":gneJ3_w0" fromLane="0" toLane="0" dir="s" state="M"/>
    <connection from="gneE2" to=":gneJ3_w0" fromLane="0" toLane="0" dir="s" state="M"/>
    <connection from=":gneJ3_w1" to=":gneJ3_c1" fromLane="0" toLane="0" dir="s" state="m"/>
    <connection from=":gneJ3_w2" to=":gneJ3_c0" fromLane="0" toLane="0" dir="s" state="m"/>
</net>
