<?xml version="1.0" encoding="UTF-8"?>

<!-- generated on 05/24/17 12:37:36 by SUMO duarouter Version dev-SVN-r24439
<?xml version="1.0" encoding="UTF-8"?>

<configuration xmlns:xsi="http://www.w3.org/2001/XMLSchema-instance" xsi:noNamespaceSchemaLocation="http://sumo.dlr.de/xsd/duarouterConfiguration.xsd">

    <input>
        <net-file value="input_net.net.xml"/>
        <alternative-files value="input_alts.rou.alt.xml"/>
    </input>

    <output>
        <output-file value="routes.rou.xml"/>
    </output>

    <processing>
        <max-alternatives value="2"/>
    </processing>

    <report>
        <xml-validation value="never"/>
        <no-step-log value="true"/>
    </report>

    <random_number>
        <seed value="0"/>
    </random_number>

</configuration>
-->

<routes xmlns:xsi="http://www.w3.org/2001/XMLSchema-instance" xsi:noNamespaceSchemaLocation="http://sumo.dlr.de/xsd/routes_file.xsd">
    <vType id="0" length="3.00" minGap="2.00" maxSpeed="70.00" color="yellow" accel="2.6" decel="4.5" sigma="0.5"/>
    <vehicle id="0" type="0" depart="0.00" color="black">
        <route edges="beg 1toL L Lto2 end"/>
    </vehicle>
</routes>
