<?xml version="1.0" encoding="UTF-8"?>

<!-- generated on 2021-08-30 13:45:52 by Eclipse SUMO netedit Version v1_10_0+0379-37f06a2396
-->

<additional xmlns:xsi="http://www.w3.org/2001/XMLSchema-instance" xsi:noNamespaceSchemaLocation="http://sumo.dlr.de/xsd/additional_file.xsd">
    <containerStop id="containerStop_01" name="containerStop" lane="gneE0_0" startPos="25.00" endPos="30.00"/>
    <containerStop id="containerStop_04" name="containerStop" lane="gneE0_0" startPos="35.00" endPos="40.00" parkingLength="2.50"/>
    <containerStop id="containerStop_05" name="containerStop" lane="gneE0_0" startPos="45.00" endPos="50.00" parkingLength="6.00"/>
</additional>
