<routes>
    <vType id="DEFAULT_VEHTYPE" sigma="0"/>

    <trip id="v0" depart="0" from="NC" to="CS" departPos="-5" departSpeed="max" arrivalPos="50"/>
    <trip id="v1" depart="0" from="SC" to="CN" departPos="-5" departSpeed="max" arrivalPos="50"/>
    <trip id="v2" depart="0" from="WC" to="CE" departPos="-15" departSpeed="max" arrivalPos="50"/>
        
</routes>
