<?xml version="1.0"?>

<!-- generated on 07/31/08 08:52:42 by SUMO jtrrouter Version 0.9.7
<configuration>

   <input>
      <net-file>../jtrrouter.net.xml</net-file>
      <flow-definition>../jtrrouter.flows.xml</flow-definition>
      <turn-definition>jtrrouter.turns.xml</turn-definition>
   </input>

   <output>
      <output-file>jtrrouter.rou.xml</output-file>
   </output>

   <processing>
      <continue-on-unbuild>true</continue-on-unbuild>
      <sinks>end</sinks>
   </processing>

   <report>
      <verbose>true</verbose>
   </report>

</configuration>
-->

<routes>
   <vehicle id="0_0" depart="0">
      <route>beg beg2right right right2end -middle middle end</route>
   </vehicle>
   <vehicle id="0_1" depart="0">
      <route>beg beg2right right right2end -middle middle end</route>
   </vehicle>
   <vehicle id="0_2" depart="0">
      <route>beg beg2left left left2end -middle middle end</route>
   </vehicle>
   <vehicle id="0_3" depart="0">
      <route>beg beg2left left left2end -middle middle end</route>
   </vehicle>
   <vehicle id="0_4" depart="0">
      <route>beg beg2right right right2end -middle middle end</route>
   </vehicle>
   <vehicle id="0_5" depart="0">
      <route>beg beg2left left left2end -middle middle end</route>
   </vehicle>
   <vehicle id="0_6" depart="0">
      <route>beg beg2right right right2end -middle middle end</route>
   </vehicle>
   <vehicle id="0_7" depart="0">
      <route>beg beg2left left left2end -middle middle end</route>
   </vehicle>
   <vehicle id="0_8" depart="0">
      <route>beg beg2left left left2end -middle middle end</route>
   </vehicle>
   <vehicle id="0_9" depart="0">
      <route>beg beg2right right right2end -middle middle end</route>
   </vehicle>
</routes>
