<?xml version="1.0" encoding="UTF-8"?>

<!-- generated on 17.09.2018 14:01:38 by Eclipse SUMO netedit Version v1_0_0+0003-85a2829977
<configuration xmlns:xsi="http://www.w3.org/2001/XMLSchema-instance" xsi:noNamespaceSchemaLocation="https://sumo.dlr.de/xsd/netconvertConfiguration.xsd">

    <input>
        <sumo-net-file value="D:\sumo\tests\netedit\netElements\connections\inspect_TLS\input_net.net.xml"/>
    </input>

    <output>
        <output-file value="D:\sumo\tests\netedit\netElements\connections\inspect_TLS\input_net.net.xml"/>
        <plain-output-prefix value="D:\sumo\tests\netedit\netElements\connections\inspect_TLS\input_net"/>
    </output>

    <processing>
        <offset.disable-normalization value="true"/>
        <lefthand value="false"/>
    </processing>

    <junctions>
        <no-internal-links value="true"/>
        <no-turnarounds value="true"/>
        <junctions.corner-detail value="5"/>
        <junctions.limit-turn-speed value="5.5"/>
        <rectangular-lane-cut value="false"/>
    </junctions>

    <pedestrian>
        <walkingareas value="false"/>
    </pedestrian>

</configuration>
-->

<nodes version="1.0" xmlns:xsi="http://www.w3.org/2001/XMLSchema-instance" xsi:noNamespaceSchemaLocation="https://sumo.dlr.de/xsd/nodes_file.xsd">
    <location netOffset="50.00,50.00" convBoundary="0.00,0.00,100.00,100.00" origBoundary="-50.00,-50.00,50.00,50.00" projParameter="!"/>

    <node id="A" x="50.00" y="0.00" type="dead_end"/>
    <node id="B" x="50.00" y="100.00" type="dead_end"/>
    <node id="C" x="0.00" y="50.00" type="dead_end"/>
    <node id="Center" x="50.00" y="50.00" type="traffic_light" tl="Center"/>
    <node id="D" x="100.00" y="50.00" type="dead_end"/>
</nodes>
