<?xml version="1.0" encoding="UTF-8"?>

<!-- generated on 2022-11-16 11:07:13 by Eclipse SUMO netconvert Version v1_15_0+0315-be5f1a2
This data file and the accompanying materials
are made available under the terms of the Eclipse Public License v2.0
which accompanies this distribution, and is available at
http://www.eclipse.org/legal/epl-v20.html
This file may also be made available under the following Secondary
Licenses when the conditions for such availability set forth in the Eclipse
Public License 2.0 are satisfied: GNU General Public License, version 2
or later which is available at
https://www.gnu.org/licenses/old-licenses/gpl-2.0-standalone.html
SPDX-License-Identifier: EPL-2.0 OR GPL-2.0-or-later
<configuration xmlns:xsi="http://www.w3.org/2001/XMLSchema-instance" xsi:noNamespaceSchemaLocation="http://sumo.dlr.de/xsd/netconvertConfiguration.xsd">

    <input>
        <node-files value="input_plain.nod.xml"/>
        <edge-files value="input_plain.edg.xml"/>
    </input>

    <output>
        <write-license value="true"/>
    </output>

    <report>
        <xml-validation value="never"/>
    </report>

</configuration>
-->

<net version="1.16" junctionCornerDetail="5" limitTurnSpeed="5.50" xmlns:xsi="http://www.w3.org/2001/XMLSchema-instance" xsi:noNamespaceSchemaLocation="http://sumo.dlr.de/xsd/net_file.xsd">

    <location netOffset="100.00,100.00" convBoundary="0.00,0.00,200.00,200.00" origBoundary="-10000000000.00,-10000000000.00,10000000000.00,10000000000.00" projParameter="!"/>

    <edge id=":E_0" function="internal">
        <lane id=":E_0_0" index="0" disallow="bicycle" speed="3.65" length="4.67" shape="200.00,96.80 201.20,97.60 201.60,98.40 201.20,99.20 200.00,100.00"/>
    </edge>
    <edge id=":N_0" function="internal">
        <lane id=":N_0_0" index="0" disallow="bicycle" speed="3.65" length="4.67" shape="103.20,200.00 102.40,201.20 101.60,201.60 100.80,201.20 100.00,200.00"/>
    </edge>
    <edge id=":S_0" function="internal">
        <lane id=":S_0_0" index="0" disallow="bicycle" speed="3.65" length="4.67" shape="96.80,0.00 97.60,-1.20 98.40,-1.60 99.20,-1.20 100.00,0.00"/>
    </edge>
    <edge id=":W_0" function="internal">
        <lane id=":W_0_0" index="0" disallow="bicycle" speed="3.65" length="4.67" shape="0.00,103.20 -1.20,102.40 -1.60,101.60 -1.20,100.80 0.00,100.00"/>
    </edge>
    <edge id=":clusterC_J1_J2_J5_#1more_0" function="internal">
        <lane id=":clusterC_J1_J2_J5_#1more_0_0" index="0" disallow="bicycle" speed="8.76" length="17.20" shape="93.60,113.63 92.74,110.46 90.17,108.21 85.89,106.85 79.90,106.40"/>
    </edge>
    <edge id=":clusterC_J1_J2_J5_#1more_1" function="internal">
        <lane id=":clusterC_J1_J2_J5_#1more_1_0" index="0" disallow="bicycle" speed="13.89" length="27.31" shape="93.60,113.63 93.60,86.34"/>
        <lane id=":clusterC_J1_J2_J5_#1more_1_1" index="1" disallow="bicycle" speed="13.89" length="27.31" shape="96.80,113.68 96.80,86.34"/>
    </edge>
    <edge id=":clusterC_J1_J2_J5_#1more_3" function="internal">
        <lane id=":clusterC_J1_J2_J5_#1more_3_0" index="0" disallow="bicycle" speed="11.49" length="4.16" shape="100.00,113.73 100.71,109.63"/>
    </edge>
    <edge id=":clusterC_J1_J2_J5_#1more_4" function="internal">
        <lane id=":clusterC_J1_J2_J5_#1more_4_0" index="0" disallow="bicycle" speed="3.65" length="1.44" shape="100.00,113.73 100.82,112.54"/>
    </edge>
    <edge id=":clusterC_J1_J2_J5_#1more_24" function="internal">
        <lane id=":clusterC_J1_J2_J5_#1more_24_0" index="0" disallow="bicycle" speed="11.49" length="26.19" shape="100.71,109.63 101.29,106.32 105.16,101.03 111.61,97.86 120.63,96.80"/>
    </edge>
    <edge id=":clusterC_J1_J2_J5_#1more_25" function="internal">
        <lane id=":clusterC_J1_J2_J5_#1more_25_0" index="0" disallow="bicycle" speed="3.65" length="3.23" shape="100.82,112.54 101.63,112.15 102.42,112.57 103.20,113.78"/>
    </edge>
    <edge id=":clusterC_J1_J2_J5_#1more_5" function="internal">
        <lane id=":clusterC_J1_J2_J5_#1more_5_0" index="0" disallow="bicycle" speed="8.90" length="17.81" shape="120.63,106.40 114.41,106.86 109.96,108.26 107.29,110.58 106.40,113.83"/>
    </edge>
    <edge id=":clusterC_J1_J2_J5_#1more_6" function="internal">
        <lane id=":clusterC_J1_J2_J5_#1more_6_0" index="0" disallow="bicycle" speed="13.89" length="40.74" shape="120.63,106.40 79.90,106.40"/>
        <lane id=":clusterC_J1_J2_J5_#1more_6_1" index="1" disallow="bicycle" speed="13.89" length="40.74" shape="120.63,103.20 79.90,103.20"/>
    </edge>
    <edge id=":clusterC_J1_J2_J5_#1more_8" function="internal">
        <lane id=":clusterC_J1_J2_J5_#1more_8_0" index="0" disallow="bicycle" speed="11.55" length="8.62" shape="120.63,100.00 112.05,99.30"/>
    </edge>
    <edge id=":clusterC_J1_J2_J5_#1more_9" function="internal">
        <lane id=":clusterC_J1_J2_J5_#1more_9_0" index="0" disallow="bicycle" speed="3.65" length="1.44" shape="120.63,100.00 119.43,99.20"/>
    </edge>
    <edge id=":clusterC_J1_J2_J5_#1more_26" function="internal">
        <lane id=":clusterC_J1_J2_J5_#1more_26_0" index="0" disallow="bicycle" speed="11.55" length="22.06" shape="112.05,99.30 110.21,99.15 102.76,96.59 98.29,92.32 96.80,86.34"/>
    </edge>
    <edge id=":clusterC_J1_J2_J5_#1more_27" function="internal">
        <lane id=":clusterC_J1_J2_J5_#1more_27_0" index="0" disallow="bicycle" speed="3.65" length="3.23" shape="119.43,99.20 119.03,98.40 119.43,97.60 120.63,96.80"/>
    </edge>
    <edge id=":clusterC_J1_J2_J5_#1more_10" function="internal">
        <lane id=":clusterC_J1_J2_J5_#1more_10_0" index="0" allow="bicycle" speed="13.89" length="27.62" shape="114.58,86.35 114.94,113.97"/>
    </edge>
    <edge id=":clusterC_J1_J2_J5_#1more_11" function="internal">
        <lane id=":clusterC_J1_J2_J5_#1more_11_0" index="0" allow="bicycle" speed="9.20" length="4.89" shape="114.58,86.35 111.86,90.42"/>
    </edge>
    <edge id=":clusterC_J1_J2_J5_#1more_28" function="internal">
        <lane id=":clusterC_J1_J2_J5_#1more_28_0" index="0" allow="bicycle" speed="9.20" length="36.94" shape="111.86,90.42 107.41,97.09 100.25,100.67 93.09,97.08 85.93,86.34"/>
    </edge>
    <edge id=":clusterC_J1_J2_J5_#1more_12" function="internal">
        <lane id=":clusterC_J1_J2_J5_#1more_12_0" index="0" disallow="bicycle" speed="8.87" length="17.69" shape="106.40,86.35 107.29,89.52 109.96,91.79 114.41,93.15 120.63,93.60"/>
    </edge>
    <edge id=":clusterC_J1_J2_J5_#1more_13" function="internal">
        <lane id=":clusterC_J1_J2_J5_#1more_13_0" index="0" disallow="bicycle" speed="13.89" length="27.46" shape="106.40,86.35 106.40,113.83"/>
        <lane id=":clusterC_J1_J2_J5_#1more_13_1" index="1" disallow="bicycle" speed="13.89" length="27.46" shape="103.20,86.35 103.20,113.78"/>
    </edge>
    <edge id=":clusterC_J1_J2_J5_#1more_15" function="internal">
        <lane id=":clusterC_J1_J2_J5_#1more_15_0" index="0" disallow="bicycle" speed="11.39" length="4.24" shape="100.00,86.35 99.29,90.53"/>
    </edge>
    <edge id=":clusterC_J1_J2_J5_#1more_16" function="internal">
        <lane id=":clusterC_J1_J2_J5_#1more_16_0" index="0" disallow="bicycle" speed="3.65" length="1.44" shape="100.00,86.35 99.20,87.55"/>
    </edge>
    <edge id=":clusterC_J1_J2_J5_#1more_29" function="internal">
        <lane id=":clusterC_J1_J2_J5_#1more_29_0" index="0" disallow="bicycle" speed="11.39" length="25.60" shape="99.29,90.53 98.74,93.72 94.97,98.99 88.69,102.15 79.90,103.20"/>
    </edge>
    <edge id=":clusterC_J1_J2_J5_#1more_30" function="internal">
        <lane id=":clusterC_J1_J2_J5_#1more_30_0" index="0" disallow="bicycle" speed="3.65" length="3.23" shape="99.20,87.55 98.40,87.95 97.60,87.54 96.80,86.34"/>
    </edge>
    <edge id=":clusterC_J1_J2_J5_#1more_17" function="internal">
        <lane id=":clusterC_J1_J2_J5_#1more_17_0" index="0" disallow="bicycle" speed="8.76" length="17.22" shape="79.90,93.60 85.89,93.15 90.17,91.79 92.74,89.52 93.60,86.34"/>
    </edge>
    <edge id=":clusterC_J1_J2_J5_#1more_18" function="internal">
        <lane id=":clusterC_J1_J2_J5_#1more_18_0" index="0" disallow="bicycle" speed="13.89" length="40.74" shape="79.90,93.60 120.63,93.60"/>
        <lane id=":clusterC_J1_J2_J5_#1more_18_1" index="1" disallow="bicycle" speed="13.89" length="40.74" shape="79.90,96.80 120.63,96.80"/>
    </edge>
    <edge id=":clusterC_J1_J2_J5_#1more_20" function="internal">
        <lane id=":clusterC_J1_J2_J5_#1more_20_0" index="0" disallow="bicycle" speed="11.48" length="8.35" shape="79.90,100.00 88.22,100.70"/>
    </edge>
    <edge id=":clusterC_J1_J2_J5_#1more_21" function="internal">
        <lane id=":clusterC_J1_J2_J5_#1more_21_0" index="0" disallow="bicycle" speed="3.65" length="1.44" shape="79.90,100.00 81.10,100.80"/>
    </edge>
    <edge id=":clusterC_J1_J2_J5_#1more_31" function="internal">
        <lane id=":clusterC_J1_J2_J5_#1more_31_0" index="0" disallow="bicycle" speed="11.48" length="21.94" shape="88.22,100.70 90.09,100.86 97.37,103.44 101.74,107.75 103.20,113.78"/>
    </edge>
    <edge id=":clusterC_J1_J2_J5_#1more_32" function="internal">
        <lane id=":clusterC_J1_J2_J5_#1more_32_0" index="0" disallow="bicycle" speed="3.65" length="3.23" shape="81.10,100.80 81.50,101.60 81.10,102.40 79.90,103.20"/>
    </edge>
    <edge id=":clusterC_J1_J2_J5_#1more_22" function="internal">
        <lane id=":clusterC_J1_J2_J5_#1more_22_0" index="0" allow="bicycle" speed="13.89" length="27.16" shape="85.46,113.50 85.93,86.34"/>
    </edge>
    <edge id=":clusterC_J1_J2_J5_#1more_23" function="internal">
        <lane id=":clusterC_J1_J2_J5_#1more_23_0" index="0" allow="bicycle" speed="9.32" length="4.81" shape="85.46,113.50 88.20,109.54"/>
    </edge>
    <edge id=":clusterC_J1_J2_J5_#1more_33" function="internal">
        <lane id=":clusterC_J1_J2_J5_#1more_33_0" index="0" allow="bicycle" speed="9.32" length="38.24" shape="88.20,109.54 93.01,102.56 100.44,98.99 107.75,102.79 114.94,113.97"/>
    </edge>

    <edge id="CE" from="clusterC_J1_J2_J5_#1more" to="E" priority="2" spreadType="roadCenter" shape="100.00,100.00 200.00,100.00">
        <lane id="CE_0" index="0" disallow="bicycle" speed="13.89" length="79.37" shape="120.63,93.60 200.00,93.60"/>
        <lane id="CE_1" index="1" disallow="bicycle" speed="13.89" length="79.37" shape="120.63,96.80 200.00,96.80"/>
    </edge>
    <edge id="CN" from="clusterC_J1_J2_J5_#1more" to="N" priority="2" spreadType="roadCenter" shape="100.00,100.00 100.00,200.00">
        <lane id="CN_0" index="0" disallow="bicycle" speed="13.89" length="86.20" shape="106.40,113.83 106.40,200.00"/>
        <lane id="CN_1" index="1" disallow="bicycle" speed="13.89" length="86.20" shape="103.20,113.78 103.20,200.00"/>
    </edge>
    <edge id="CS" from="clusterC_J1_J2_J5_#1more" to="S" priority="2" spreadType="roadCenter" shape="100.00,100.00 100.00,0.00">
        <lane id="CS_0" index="0" disallow="bicycle" speed="13.89" length="86.34" shape="93.60,86.34 93.60,0.00"/>
        <lane id="CS_1" index="1" disallow="bicycle" speed="13.89" length="86.34" shape="96.80,86.34 96.80,0.00"/>
    </edge>
    <edge id="CW" from="clusterC_J1_J2_J5_#1more" to="W" priority="2" spreadType="roadCenter" shape="100.00,100.00 0.00,100.00">
        <lane id="CW_0" index="0" disallow="bicycle" speed="13.89" length="79.90" shape="79.90,106.40 0.00,106.40"/>
        <lane id="CW_1" index="1" disallow="bicycle" speed="13.89" length="79.90" shape="79.90,103.20 0.00,103.20"/>
    </edge>
    <edge id="E0" from="J0" to="clusterC_J1_J2_J5_#1more" priority="-1" shape="114.24,3.64 112.97,86.67">
        <lane id="E0_0" index="0" allow="bicycle" speed="13.89" length="82.70" shape="115.84,3.66 114.58,86.35"/>
    </edge>
    <edge id="E1" from="clusterC_J1_J2_J5_#1more" to="J3" priority="-1" shape="113.34,113.94 112.00,198.21">
        <lane id="E1_0" index="0" allow="bicycle" speed="13.89" length="84.28" shape="114.94,113.97 113.60,198.24"/>
    </edge>
    <edge id="E2" from="J4" to="clusterC_J1_J2_J5_#1more" priority="-1" shape="86.55,197.44 87.06,113.97">
        <lane id="E2_0" index="0" allow="bicycle" speed="13.89" length="83.94" shape="84.95,197.43 85.46,113.50"/>
    </edge>
    <edge id="E3" from="clusterC_J1_J2_J5_#1more" to="J7" priority="-1" shape="87.53,86.34 87.57,1.49">
        <lane id="E3_0" index="0" allow="bicycle" speed="13.89" length="84.85" shape="85.93,86.34 85.97,1.49"/>
    </edge>
    <edge id="EC" from="E" to="clusterC_J1_J2_J5_#1more" priority="2" spreadType="roadCenter" shape="200.00,100.00 100.00,100.00">
        <lane id="EC_0" index="0" disallow="bicycle" speed="13.89" length="79.37" shape="200.00,106.40 120.63,106.40"/>
        <lane id="EC_1" index="1" disallow="bicycle" speed="13.89" length="79.37" shape="200.00,103.20 120.63,103.20"/>
        <lane id="EC_2" index="2" disallow="bicycle" speed="13.89" length="79.37" shape="200.00,100.00 120.63,100.00"/>
    </edge>
    <edge id="NC" from="N" to="clusterC_J1_J2_J5_#1more" priority="2" spreadType="roadCenter" shape="100.00,200.00 100.00,100.00">
        <lane id="NC_0" index="0" disallow="bicycle" speed="13.89" length="86.32" shape="93.60,200.00 93.60,113.63"/>
        <lane id="NC_1" index="1" disallow="bicycle" speed="13.89" length="86.32" shape="96.80,200.00 96.80,113.68"/>
        <lane id="NC_2" index="2" disallow="bicycle" speed="13.89" length="86.32" shape="100.00,200.00 100.00,113.73"/>
    </edge>
    <edge id="SC" from="S" to="clusterC_J1_J2_J5_#1more" priority="2" spreadType="roadCenter" shape="100.00,0.00 100.00,100.00">
        <lane id="SC_0" index="0" disallow="bicycle" speed="13.89" length="86.35" shape="106.40,0.00 106.40,86.35"/>
        <lane id="SC_1" index="1" disallow="bicycle" speed="13.89" length="86.35" shape="103.20,0.00 103.20,86.35"/>
        <lane id="SC_2" index="2" disallow="bicycle" speed="13.89" length="86.35" shape="100.00,0.00 100.00,86.35"/>
    </edge>
    <edge id="WC" from="W" to="clusterC_J1_J2_J5_#1more" priority="2" spreadType="roadCenter" shape="0.00,100.00 100.00,100.00">
        <lane id="WC_0" index="0" disallow="bicycle" speed="13.89" length="79.90" shape="0.00,93.60 79.90,93.60"/>
        <lane id="WC_1" index="1" disallow="bicycle" speed="13.89" length="79.90" shape="0.00,96.80 79.90,96.80"/>
        <lane id="WC_2" index="2" disallow="bicycle" speed="13.89" length="79.90" shape="0.00,100.00 79.90,100.00"/>
    </edge>

    <tlLogic id="J8" type="static" programID="0" offset="0">
        <phase duration="33" state="gGGggrrrrrGggGGggrrrrrGg"/>
        <phase duration="3"  state="gyyggrrrrryygyyggrrrrryy"/>
        <phase duration="6"  state="GrrgGrrrrrrrGrrgGrrrrrrr"/>
        <phase duration="3"  state="yrryyrrrrrrryrryyrrrrrrr"/>
        <phase duration="33" state="rrrrrGGGggrrrrrrrGGGggrr"/>
        <phase duration="3"  state="rrrrryyyggrrrrrrryyyggrr"/>
        <phase duration="6"  state="rrrrrrrrGGrrrrrrrrrrGGrr"/>
        <phase duration="3"  state="rrrrrrrryyrrrrrrrrrryyrr"/>
    </tlLogic>

    <junction id="E" type="priority" x="200.00" y="100.00" incLanes="CE_0 CE_1" intLanes=":E_0_0" shape="200.00,98.40 200.00,92.00 200.00,98.40">
        <request index="0" response="0" foes="0" cont="0"/>
    </junction>
    <junction id="J0" type="dead_end" x="114.24" y="3.64" incLanes="" intLanes="" shape="114.24,3.64 117.44,3.69"/>
    <junction id="J3" type="dead_end" x="112.00" y="198.21" incLanes="E1_0" intLanes="" shape="115.20,198.26 112.00,198.21"/>
    <junction id="J4" type="dead_end" x="86.55" y="197.44" incLanes="" intLanes="" shape="86.55,197.44 83.35,197.42"/>
    <junction id="J7" type="dead_end" x="87.57" y="1.49" incLanes="E3_0" intLanes="" shape="84.37,1.49 87.57,1.49"/>
    <junction id="N" type="priority" x="100.00" y="200.00" incLanes="CN_0 CN_1" intLanes=":N_0_0" shape="101.60,200.00 108.00,200.00 101.60,200.00">
        <request index="0" response="0" foes="0" cont="0"/>
    </junction>
    <junction id="S" type="priority" x="100.00" y="0.00" incLanes="CS_0 CS_1" intLanes=":S_0_0" shape="98.40,0.00 92.00,0.00 98.40,0.00">
        <request index="0" response="0" foes="0" cont="0"/>
    </junction>
    <junction id="W" type="priority" x="0.00" y="100.00" incLanes="CW_0 CW_1" intLanes=":W_0_0" shape="0.00,101.60 0.00,108.00 0.00,101.60">
        <request index="0" response="0" foes="0" cont="0"/>
    </junction>
    <junction id="clusterC_J1_J2_J5_#1more" type="traffic_light" x="100.18" y="100.18" incLanes="NC_0 NC_1 NC_2 EC_0 EC_1 EC_2 E0_0 SC_0 SC_1 SC_2 WC_0 WC_1 WC_2 E2_0" intLanes=":clusterC_J1_J2_J5_#1more_0_0 :clusterC_J1_J2_J5_#1more_1_0 :clusterC_J1_J2_J5_#1more_1_1 :clusterC_J1_J2_J5_#1more_24_0 :clusterC_J1_J2_J5_#1more_25_0 :clusterC_J1_J2_J5_#1more_5_0 :clusterC_J1_J2_J5_#1more_6_0 :clusterC_J1_J2_J5_#1more_6_1 :clusterC_J1_J2_J5_#1more_26_0 :clusterC_J1_J2_J5_#1more_27_0 :clusterC_J1_J2_J5_#1more_10_0 :clusterC_J1_J2_J5_#1more_28_0 :clusterC_J1_J2_J5_#1more_12_0 :clusterC_J1_J2_J5_#1more_13_0 :clusterC_J1_J2_J5_#1more_13_1 :clusterC_J1_J2_J5_#1more_29_0 :clusterC_J1_J2_J5_#1more_30_0 :clusterC_J1_J2_J5_#1more_17_0 :clusterC_J1_J2_J5_#1more_18_0 :clusterC_J1_J2_J5_#1more_18_1 :clusterC_J1_J2_J5_#1more_31_0 :clusterC_J1_J2_J5_#1more_32_0 :clusterC_J1_J2_J5_#1more_22_0 :clusterC_J1_J2_J5_#1more_33_0" shape="83.86,113.47 116.54,113.99 117.04,110.66 117.61,109.50 118.40,108.67 119.41,108.17 120.63,108.00 120.63,92.00 118.12,91.37 117.25,90.59 116.63,89.49 116.28,88.08 116.18,86.35 84.33,86.34 83.84,89.48 83.22,90.58 82.36,91.37 81.25,91.84 79.90,92.00 79.90,108.00 82.11,108.61 82.89,109.37 83.44,110.43 83.76,111.80">
        <request index="0"  response="010000000000000000000000" foes="110000000000000011000000" cont="0"/>
        <request index="1"  response="000100000000000100000000" foes="100111111000100111000000" cont="0"/>
        <request index="2"  response="000100000000000100000000" foes="100111111000100111000000" cont="0"/>
        <request index="3"  response="000100000110010100000000" foes="100111000110011111000000" cont="1"/>
        <request index="4"  response="000100000110000000000000" foes="000100000110000000000000" cont="1"/>
        <request index="5"  response="000000000110010000000000" foes="100000000110010000000000" cont="0"/>
        <request index="6"  response="010000001110010000001111" foes="011100001110010000001111" cont="0"/>
        <request index="7"  response="010000001110010000001111" foes="011100001110010000001111" cont="0"/>
        <request index="8"  response="000011001110010000001110" foes="000011011110110000001110" cont="1"/>
        <request index="9"  response="000011000000000000001000" foes="000011000000000000001000" cont="1"/>
        <request index="10" response="000000000000000100000000" foes="100011000001000111101000" cont="0"/>
        <request index="11" response="010000101111000100000110" foes="010000101111000100000110" cont="1"/>
        <request index="12" response="000000000000010000000000" foes="000011000000110000000000" cont="0"/>
        <request index="13" response="000100000000000100000000" foes="100111000000100111111000" cont="0"/>
        <request index="14" response="000100000000000100000000" foes="100111000000100111111000" cont="0"/>
        <request index="15" response="010100000000000100000110" foes="011111000000100111000110" cont="1"/>
        <request index="16" response="000000000000000100000110" foes="000000000000000100000110" cont="1"/>
        <request index="17" response="010000000000000000000110" foes="010000000000100000000110" cont="0"/>
        <request index="18" response="010000001111010000001110" foes="010000001111011100001110" cont="0"/>
        <request index="19" response="010000001111010000001110" foes="010000001111011100001110" cont="0"/>
        <request index="20" response="010000001110000011001110" foes="110000001110000011011110" cont="1"/>
        <request index="21" response="000000001000000011000000" foes="000000001000000011000000" cont="1"/>
        <request index="22" response="000100000000000000000000" foes="000111101000100011000001" cont="0"/>
        <request index="23" response="000100000110010000101111" foes="000100000110010000101111" cont="1"/>
    </junction>

    <junction id=":clusterC_J1_J2_J5_#1more_24_0" type="internal" x="100.71" y="109.63" incLanes=":clusterC_J1_J2_J5_#1more_3_0 E0_0 SC_0 SC_1" intLanes=":clusterC_J1_J2_J5_#1more_6_0 :clusterC_J1_J2_J5_#1more_6_1 :clusterC_J1_J2_J5_#1more_8_0 :clusterC_J1_J2_J5_#1more_9_0 :clusterC_J1_J2_J5_#1more_10_0 :clusterC_J1_J2_J5_#1more_12_0 :clusterC_J1_J2_J5_#1more_13_0 :clusterC_J1_J2_J5_#1more_13_1 :clusterC_J1_J2_J5_#1more_18_0 :clusterC_J1_J2_J5_#1more_18_1 :clusterC_J1_J2_J5_#1more_20_0 :clusterC_J1_J2_J5_#1more_23_0"/>
    <junction id=":clusterC_J1_J2_J5_#1more_25_0" type="internal" x="100.82" y="112.54" incLanes=":clusterC_J1_J2_J5_#1more_4_0 EC_0 SC_0 SC_1 WC_2" intLanes=":clusterC_J1_J2_J5_#1more_5_0 :clusterC_J1_J2_J5_#1more_13_0 :clusterC_J1_J2_J5_#1more_13_1 :clusterC_J1_J2_J5_#1more_20_0"/>
    <junction id=":clusterC_J1_J2_J5_#1more_26_0" type="internal" x="112.05" y="99.30" incLanes=":clusterC_J1_J2_J5_#1more_8_0 WC_0 WC_1" intLanes=":clusterC_J1_J2_J5_#1more_1_0 :clusterC_J1_J2_J5_#1more_1_1 :clusterC_J1_J2_J5_#1more_3_0 :clusterC_J1_J2_J5_#1more_10_0 :clusterC_J1_J2_J5_#1more_11_0 :clusterC_J1_J2_J5_#1more_13_0 :clusterC_J1_J2_J5_#1more_13_1 :clusterC_J1_J2_J5_#1more_15_0 :clusterC_J1_J2_J5_#1more_16_0 :clusterC_J1_J2_J5_#1more_17_0 :clusterC_J1_J2_J5_#1more_18_0 :clusterC_J1_J2_J5_#1more_18_1"/>
    <junction id=":clusterC_J1_J2_J5_#1more_27_0" type="internal" x="119.43" y="99.20" incLanes=":clusterC_J1_J2_J5_#1more_9_0 NC_2 SC_0 WC_0 WC_1" intLanes=":clusterC_J1_J2_J5_#1more_3_0 :clusterC_J1_J2_J5_#1more_12_0 :clusterC_J1_J2_J5_#1more_18_0 :clusterC_J1_J2_J5_#1more_18_1"/>
    <junction id=":clusterC_J1_J2_J5_#1more_28_0" type="internal" x="111.86" y="90.42" incLanes=":clusterC_J1_J2_J5_#1more_11_0 E2_0 EC_2 NC_0 NC_1 SC_0 SC_1 SC_2 WC_0" intLanes=":clusterC_J1_J2_J5_#1more_1_0 :clusterC_J1_J2_J5_#1more_1_1 :clusterC_J1_J2_J5_#1more_8_0 :clusterC_J1_J2_J5_#1more_12_0 :clusterC_J1_J2_J5_#1more_13_0 :clusterC_J1_J2_J5_#1more_13_1 :clusterC_J1_J2_J5_#1more_15_0 :clusterC_J1_J2_J5_#1more_17_0 :clusterC_J1_J2_J5_#1more_22_0"/>
    <junction id=":clusterC_J1_J2_J5_#1more_29_0" type="internal" x="99.29" y="90.53" incLanes=":clusterC_J1_J2_J5_#1more_15_0 E2_0 NC_0 NC_1" intLanes=":clusterC_J1_J2_J5_#1more_0_0 :clusterC_J1_J2_J5_#1more_1_0 :clusterC_J1_J2_J5_#1more_1_1 :clusterC_J1_J2_J5_#1more_6_0 :clusterC_J1_J2_J5_#1more_6_1 :clusterC_J1_J2_J5_#1more_8_0 :clusterC_J1_J2_J5_#1more_11_0 :clusterC_J1_J2_J5_#1more_18_0 :clusterC_J1_J2_J5_#1more_18_1 :clusterC_J1_J2_J5_#1more_20_0 :clusterC_J1_J2_J5_#1more_21_0 :clusterC_J1_J2_J5_#1more_22_0"/>
    <junction id=":clusterC_J1_J2_J5_#1more_30_0" type="internal" x="99.20" y="87.55" incLanes=":clusterC_J1_J2_J5_#1more_16_0 EC_2 NC_0 NC_1 WC_0" intLanes=":clusterC_J1_J2_J5_#1more_1_0 :clusterC_J1_J2_J5_#1more_1_1 :clusterC_J1_J2_J5_#1more_8_0 :clusterC_J1_J2_J5_#1more_17_0"/>
    <junction id=":clusterC_J1_J2_J5_#1more_31_0" type="internal" x="88.22" y="100.70" incLanes=":clusterC_J1_J2_J5_#1more_20_0 EC_0 EC_1" intLanes=":clusterC_J1_J2_J5_#1more_1_0 :clusterC_J1_J2_J5_#1more_1_1 :clusterC_J1_J2_J5_#1more_3_0 :clusterC_J1_J2_J5_#1more_4_0 :clusterC_J1_J2_J5_#1more_5_0 :clusterC_J1_J2_J5_#1more_6_0 :clusterC_J1_J2_J5_#1more_6_1 :clusterC_J1_J2_J5_#1more_13_0 :clusterC_J1_J2_J5_#1more_13_1 :clusterC_J1_J2_J5_#1more_15_0 :clusterC_J1_J2_J5_#1more_22_0 :clusterC_J1_J2_J5_#1more_23_0"/>
    <junction id=":clusterC_J1_J2_J5_#1more_32_0" type="internal" x="81.10" y="100.80" incLanes=":clusterC_J1_J2_J5_#1more_21_0 EC_0 EC_1 NC_0 SC_2" intLanes=":clusterC_J1_J2_J5_#1more_0_0 :clusterC_J1_J2_J5_#1more_6_0 :clusterC_J1_J2_J5_#1more_6_1 :clusterC_J1_J2_J5_#1more_15_0"/>
    <junction id=":clusterC_J1_J2_J5_#1more_33_0" type="internal" x="88.20" y="109.54" incLanes=":clusterC_J1_J2_J5_#1more_23_0 E0_0 EC_0 NC_0 NC_1 NC_2 SC_0 SC_1 WC_2" intLanes=":clusterC_J1_J2_J5_#1more_0_0 :clusterC_J1_J2_J5_#1more_1_0 :clusterC_J1_J2_J5_#1more_1_1 :clusterC_J1_J2_J5_#1more_3_0 :clusterC_J1_J2_J5_#1more_5_0 :clusterC_J1_J2_J5_#1more_10_0 :clusterC_J1_J2_J5_#1more_13_0 :clusterC_J1_J2_J5_#1more_13_1 :clusterC_J1_J2_J5_#1more_20_0"/>

    <connection from="CE" to="EC" fromLane="1" toLane="2" via=":E_0_0" dir="t" state="M"/>
    <connection from="CN" to="NC" fromLane="1" toLane="2" via=":N_0_0" dir="t" state="M"/>
    <connection from="CS" to="SC" fromLane="1" toLane="2" via=":S_0_0" dir="t" state="M"/>
    <connection from="CW" to="WC" fromLane="1" toLane="2" via=":W_0_0" dir="t" state="M"/>
    <connection from="E0" to="E1" fromLane="0" toLane="0" via=":clusterC_J1_J2_J5_#1more_10_0" tl="J8" linkIndex="10" dir="s" state="O"/>
    <connection from="E0" to="E3" fromLane="0" toLane="0" via=":clusterC_J1_J2_J5_#1more_11_0" tl="J8" linkIndex="11" dir="t" state="o"/>
    <connection from="E2" to="E3" fromLane="0" toLane="0" via=":clusterC_J1_J2_J5_#1more_22_0" tl="J8" linkIndex="22" dir="s" state="O"/>
    <connection from="E2" to="E1" fromLane="0" toLane="0" via=":clusterC_J1_J2_J5_#1more_23_0" tl="J8" linkIndex="23" dir="t" state="o"/>
    <connection from="EC" to="CN" fromLane="0" toLane="0" via=":clusterC_J1_J2_J5_#1more_5_0" tl="J8" linkIndex="5" dir="r" state="o"/>
    <connection from="EC" to="CW" fromLane="0" toLane="0" via=":clusterC_J1_J2_J5_#1more_6_0" tl="J8" linkIndex="6" dir="s" state="o"/>
    <connection from="EC" to="CW" fromLane="1" toLane="1" via=":clusterC_J1_J2_J5_#1more_6_1" tl="J8" linkIndex="7" dir="s" state="o"/>
    <connection from="EC" to="CS" fromLane="2" toLane="1" via=":clusterC_J1_J2_J5_#1more_8_0" tl="J8" linkIndex="8" dir="l" state="o"/>
    <connection from="EC" to="CE" fromLane="2" toLane="1" via=":clusterC_J1_J2_J5_#1more_9_0" tl="J8" linkIndex="9" dir="t" state="o"/>
    <connection from="NC" to="CW" fromLane="0" toLane="0" via=":clusterC_J1_J2_J5_#1more_0_0" tl="J8" linkIndex="0" dir="r" state="o"/>
    <connection from="NC" to="CS" fromLane="0" toLane="0" via=":clusterC_J1_J2_J5_#1more_1_0" tl="J8" linkIndex="1" dir="s" state="O"/>
    <connection from="NC" to="CS" fromLane="1" toLane="1" via=":clusterC_J1_J2_J5_#1more_1_1" tl="J8" linkIndex="2" dir="s" state="O"/>
    <connection from="NC" to="CE" fromLane="2" toLane="1" via=":clusterC_J1_J2_J5_#1more_3_0" tl="J8" linkIndex="3" dir="l" state="o"/>
    <connection from="NC" to="CN" fromLane="2" toLane="1" via=":clusterC_J1_J2_J5_#1more_4_0" tl="J8" linkIndex="4" dir="t" state="o"/>
    <connection from="SC" to="CE" fromLane="0" toLane="0" via=":clusterC_J1_J2_J5_#1more_12_0" tl="J8" linkIndex="12" dir="r" state="o"/>
    <connection from="SC" to="CN" fromLane="0" toLane="0" via=":clusterC_J1_J2_J5_#1more_13_0" tl="J8" linkIndex="13" dir="s" state="O"/>
    <connection from="SC" to="CN" fromLane="1" toLane="1" via=":clusterC_J1_J2_J5_#1more_13_1" tl="J8" linkIndex="14" dir="s" state="O"/>
    <connection from="SC" to="CW" fromLane="2" toLane="1" via=":clusterC_J1_J2_J5_#1more_15_0" tl="J8" linkIndex="15" dir="l" state="o"/>
    <connection from="SC" to="CS" fromLane="2" toLane="1" via=":clusterC_J1_J2_J5_#1more_16_0" tl="J8" linkIndex="16" dir="t" state="o"/>
    <connection from="WC" to="CS" fromLane="0" toLane="0" via=":clusterC_J1_J2_J5_#1more_17_0" tl="J8" linkIndex="17" dir="r" state="o"/>
    <connection from="WC" to="CE" fromLane="0" toLane="0" via=":clusterC_J1_J2_J5_#1more_18_0" tl="J8" linkIndex="18" dir="s" state="o"/>
    <connection from="WC" to="CE" fromLane="1" toLane="1" via=":clusterC_J1_J2_J5_#1more_18_1" tl="J8" linkIndex="19" dir="s" state="o"/>
    <connection from="WC" to="CN" fromLane="2" toLane="1" via=":clusterC_J1_J2_J5_#1more_20_0" tl="J8" linkIndex="20" dir="l" state="o"/>
    <connection from="WC" to="CW" fromLane="2" toLane="1" via=":clusterC_J1_J2_J5_#1more_21_0" tl="J8" linkIndex="21" dir="t" state="o"/>

    <connection from=":E_0" to="EC" fromLane="0" toLane="2" dir="t" state="M"/>
    <connection from=":N_0" to="NC" fromLane="0" toLane="2" dir="t" state="M"/>
    <connection from=":S_0" to="SC" fromLane="0" toLane="2" dir="t" state="M"/>
    <connection from=":W_0" to="WC" fromLane="0" toLane="2" dir="t" state="M"/>
    <connection from=":clusterC_J1_J2_J5_#1more_0" to="CW" fromLane="0" toLane="0" dir="r" state="M"/>
    <connection from=":clusterC_J1_J2_J5_#1more_1" to="CS" fromLane="0" toLane="0" dir="s" state="M"/>
    <connection from=":clusterC_J1_J2_J5_#1more_1" to="CS" fromLane="1" toLane="1" dir="s" state="M"/>
    <connection from=":clusterC_J1_J2_J5_#1more_3" to="CE" fromLane="0" toLane="1" via=":clusterC_J1_J2_J5_#1more_24_0" dir="l" state="m"/>
    <connection from=":clusterC_J1_J2_J5_#1more_24" to="CE" fromLane="0" toLane="1" dir="l" state="M"/>
    <connection from=":clusterC_J1_J2_J5_#1more_4" to="CN" fromLane="0" toLane="1" via=":clusterC_J1_J2_J5_#1more_25_0" dir="t" state="m"/>
    <connection from=":clusterC_J1_J2_J5_#1more_25" to="CN" fromLane="0" toLane="1" dir="t" state="M"/>
    <connection from=":clusterC_J1_J2_J5_#1more_5" to="CN" fromLane="0" toLane="0" dir="r" state="M"/>
    <connection from=":clusterC_J1_J2_J5_#1more_6" to="CW" fromLane="0" toLane="0" dir="s" state="M"/>
    <connection from=":clusterC_J1_J2_J5_#1more_6" to="CW" fromLane="1" toLane="1" dir="s" state="M"/>
    <connection from=":clusterC_J1_J2_J5_#1more_8" to="CS" fromLane="0" toLane="1" via=":clusterC_J1_J2_J5_#1more_26_0" dir="l" state="m"/>
    <connection from=":clusterC_J1_J2_J5_#1more_26" to="CS" fromLane="0" toLane="1" dir="l" state="M"/>
    <connection from=":clusterC_J1_J2_J5_#1more_9" to="CE" fromLane="0" toLane="1" via=":clusterC_J1_J2_J5_#1more_27_0" dir="t" state="m"/>
    <connection from=":clusterC_J1_J2_J5_#1more_27" to="CE" fromLane="0" toLane="1" dir="t" state="M"/>
    <connection from=":clusterC_J1_J2_J5_#1more_10" to="E1" fromLane="0" toLane="0" dir="s" state="M"/>