<?xml version="1.0" encoding="UTF-8"?>

<!-- generated on 2023-02-24 17:11:41 by Eclipse SUMO netedit Version v1_16_0+0703-dfb4483119c
-->

<additional xmlns:xsi="http://www.w3.org/2001/XMLSchema-instance" xsi:noNamespaceSchemaLocation="http://sumo.dlr.de/xsd/additional_file.xsd">
    <!-- RouteProbes -->
    <routeProbe id="rp_0" begin="20.00" period="3600.00" edge="center1" file="rp_0.xml"/>
</additional>
