<?xml version="1.0"?>

<!-- generated on 11/16/09 13:46:47 by SUMO sumo Version dev-SVN-r7969
<configuration>

    <input>
        <net-file value="net.net.xml"/>
        <additional-files value="input_routes.rou.xml,input_additional.add.xml,input_additional2.add.xml"/>
    </input>

    <time>
        <begin value="0"/>
        <end value="150"/>
    </time>

    <report>
        <no-duration-log value="true"/>
        <no-step-log value="true"/>
    </report>

</configuration>
-->

<netstats>
   <interval begin="0" end="15" id="dump_all_15">
      <edge id="4/1to3/1">
         <lane id="4/1to3/1_0" sampledSeconds="23" CO_abs="0" CO2_abs="3.8e+004" HC_abs="6.8" PMx_abs="2.2" NOx_abs="60" fuel_abs="15"
            CO_normed="0" CO2_normed="2.3e+004" HC_normed="4.2" PMx_normed="1.3" NOx_normed="37" fuel_normed="9.2"
            CO_perVeh="0" CO2_perVeh="67" HC_perVeh="0.012" PMx_perVeh="0.0038" NOx_perVeh="0.11" fuel_perVeh="0.027"/>
      </edge>
   </interval>
   <interval begin="0" end="15" id="dump_t1_15">
      <edge id="4/1to3/1">
         <lane id="4/1to3/1_0" sampledSeconds="14" CO_abs="0" CO2_abs="2.4e+004" HC_abs="4.1" PMx_abs="1.4" NOx_abs="37" fuel_abs="9.4"
            CO_normed="0" CO2_normed="1.4e+004" HC_normed="2.5" PMx_normed="0.84" NOx_normed="23" fuel_normed="5.8"
            CO_perVeh="0" CO2_perVeh="66" HC_perVeh="0.011" PMx_perVeh="0.0038" NOx_perVeh="0.1" fuel_perVeh="0.026"/>
      </edge>
   </interval>
   <interval begin="0" end="15" id="dump_t2_15">
      <edge id="4/1to3/1">
         <lane id="4/1to3/1_0" sampledSeconds="9" CO_abs="0" CO2_abs="1.4e+004" HC_abs="2.6" PMx_abs="0.81" NOx_abs="22" fuel_abs="5.6"
            CO_normed="0" CO2_normed="8.7e+003" HC_normed="1.6" PMx_normed="0.5" NOx_normed="14" fuel_normed="3.5"
            CO_perVeh="0" CO2_perVeh="68" HC_perVeh="0.013" PMx_perVeh="0.0039" NOx_perVeh="0.11" fuel_perVeh="0.027"/>
      </edge>
   </interval>
   <interval begin="15" end="30" id="dump_all_15">
      <edge id="4/1to3/1">
         <lane id="4/1to3/1_0" sampledSeconds="30" CO_abs="0" CO2_abs="4.9e+004" HC_abs="8.8" PMx_abs="2.8" NOx_abs="77" fuel_abs="19"
            CO_normed="0" CO2_normed="3e+004" HC_normed="5.4" PMx_normed="1.7" NOx_normed="47" fuel_normed="12"
            CO_perVeh="0" CO2_perVeh="67" HC_perVeh="0.012" PMx_perVeh="0.0039" NOx_perVeh="0.11" fuel_perVeh="0.027"/>
      </edge>
   </interval>
   <interval begin="15" end="30" id="dump_t1_15">
      <edge id="4/1to3/1">
         <lane id="4/1to3/1_0" sampledSeconds="15" CO_abs="0" CO2_abs="2.5e+004" HC_abs="4.4" PMx_abs="1.5" NOx_abs="40" fuel_abs="10"
            CO_normed="0" CO2_normed="1.5e+004" HC_normed="2.7" PMx_normed="0.9" NOx_normed="25" fuel_normed="6.2"
            CO_perVeh="0" CO2_perVeh="66" HC_perVeh="0.011" PMx_perVeh="0.0038" NOx_perVeh="0.1" fuel_perVeh="0.026"/>
      </edge>
   </interval>
   <interval begin="15" end="30" id="dump_t2_15">
      <edge id="4/1to3/1">
         <lane id="4/1to3/1_0" sampledSeconds="15" CO_abs="0" CO2_abs="2.4e+004" HC_abs="4.4" PMx_abs="1.3" NOx_abs="37" fuel_abs="9.4"
            CO_normed="0" CO2_normed="1.5e+004" HC_normed="2.7" PMx_normed="0.83" NOx_normed="23" fuel_normed="5.8"
            CO_perVeh="0" CO2_perVeh="68" HC_perVeh="0.013" PMx_perVeh="0.0039" NOx_perVeh="0.11" fuel_perVeh="0.027"/>
      </edge>
   </interval>
   <interval begin="30" end="45" id="dump_all_15">
      <edge id="3/1to2/1">
         <lane id="3/1to2/1_0" sampledSeconds="22" CO_abs="0" CO2_abs="3.6e+004" HC_abs="6.4" PMx_abs="2.1" NOx_abs="56" fuel_abs="14"
            CO_normed="0" CO2_normed="2.2e+004" HC_normed="3.9" PMx_normed="1.3" NOx_normed="35" fuel_normed="8.7"
            CO_perVeh="0" CO2_perVeh="66" HC_perVeh="0.012" PMx_perVeh="0.0038" NOx_perVeh="0.1" fuel_perVeh="0.026"/>
      </edge>
      <edge id="4/1to3/1">
         <lane id="4/1to3/1_0" sampledSeconds="8.3" CO_abs="0" CO2_abs="1.3e+004" HC_abs="2.4" PMx_abs="0.75" NOx_abs="21" fuel_abs="5.2"
            CO_normed="0" CO2_normed="8.1e+003" HC_normed="1.5" PMx_normed="0.46" NOx_normed="13" fuel_normed="3.2"
            CO_perVeh="0" CO2_perVeh="68" HC_perVeh="0.013" PMx_perVeh="0.0039" NOx_perVeh="0.11" fuel_perVeh="0.027"/>
      </edge>
   </interval>
   <interval begin="30" end="45" id="dump_t1_15">
      <edge id="3/1to2/1">
         <lane id="3/1to2/1_0" sampledSeconds="15" CO_abs="0" CO2_abs="2.5e+004" HC_abs="4.4" PMx_abs="1.5" NOx_abs="40" fuel_abs="10"
            CO_normed="0" CO2_normed="1.5e+004" HC_normed="2.7" PMx_normed="0.9" NOx_normed="24" fuel_normed="6.2"
            CO_perVeh="0" CO2_perVeh="66" HC_perVeh="0.011" PMx_perVeh="0.0038" NOx_perVeh="0.1" fuel_perVeh="0.026"/>
      </edge>
      <edge id="4/1to3/1">
         <lane id="4/1to3/1_0" sampledSeconds="0.05" CO_abs="0" CO2_abs="84" HC_abs="0.015" PMx_abs="0.0049" NOx_abs="0.13" fuel_abs="0.033"
            CO_normed="0" CO2_normed="52" HC_normed="0.009" PMx_normed="0.003" NOx_normed="0.082" fuel_normed="0.021"
            CO_perVeh="0" CO2_perVeh="66" HC_perVeh="0.011" PMx_perVeh="0.0038" NOx_perVeh="0.1" fuel_perVeh="0.026"/>
      </edge>
   </interval>
   <interval begin="30" end="45" id="dump_t2_15">
      <edge id="3/1to2/1">
         <lane id="3/1to2/1_0" sampledSeconds="6.7" CO_abs="0" CO2_abs="1.1e+004" HC_abs="2" PMx_abs="0.6" NOx_abs="17" fuel_abs="4.2"
            CO_normed="0" CO2_normed="6.5e+003" HC_normed="1.2" PMx_normed="0.37" NOx_normed="10" fuel_normed="2.6"
            CO_perVeh="0" CO2_perVeh="68" HC_perVeh="0.013" PMx_perVeh="0.0039" NOx_perVeh="0.11" fuel_perVeh="0.027"/>
      </edge>
      <edge id="4/1to3/1">
         <lane id="4/1to3/1_0" sampledSeconds="8.3" CO_abs="0" CO2_abs="1.3e+004" HC_abs="2.4" PMx_abs="0.74" NOx_abs="20" fuel_abs="5.2"
            CO_normed="0" CO2_normed="8e+003" HC_normed="1.5" PMx_normed="0.46" NOx_normed="13" fuel_normed="3.2"
            CO_perVeh="0" CO2_perVeh="68" HC_perVeh="0.013" PMx_perVeh="0.0039" NOx_perVeh="0.11" fuel_perVeh="0.027"/>
      </edge>
   </interval>
   <interval begin="45" end="60" id="dump_all_15">
      <edge id="3/1to2/1">
         <lane id="3/1to2/1_0" sampledSeconds="30" CO_abs="0" CO2_abs="4.9e+004" HC_abs="8.8" PMx_abs="2.8" NOx_abs="77" fuel_abs="19"
            CO_normed="0" CO2_normed="3e+004" HC_normed="5.4" PMx_normed="1.7" NOx_normed="47" fuel_normed="12"
            CO_perVeh="0" CO2_perVeh="67" HC_perVeh="0.012" PMx_perVeh="0.0039" NOx_perVeh="0.11" fuel_perVeh="0.027"/>
      </edge>
   </interval>
   <interval begin="45" end="60" id="dump_t1_15">
      <edge id="3/1to2/1">
         <lane id="3/1to2/1_0" sampledSeconds="15" CO_abs="0" CO2_abs="2.5e+004" HC_abs="4.4" PMx_abs="1.5" NOx_abs="40" fuel_abs="10"
            CO_normed="0" CO2_normed="1.5e+004" HC_normed="2.7" PMx_normed="0.9" NOx_normed="25" fuel_normed="6.2"
            CO_perVeh="0" CO2_perVeh="66" HC_perVeh="0.011" PMx_perVeh="0.0038" NOx_perVeh="0.1" fuel_perVeh="0.026"/>
      </edge>
   </interval>
   <interval begin="45" end="60" id="dump_t2_15">
      <edge id="3/1to2/1">
         <lane id="3/1to2/1_0" sampledSeconds="15" CO_abs="0" CO2_abs="2.4e+004" HC_abs="4.4" PMx_abs="1.3" NOx_abs="37" fuel_abs="9.4"
            CO_normed="0" CO2_normed="1.5e+004" HC_normed="2.7" PMx_normed="0.83" NOx_normed="23" fuel_normed="5.8"
            CO_perVeh="0" CO2_perVeh="68" HC_perVeh="0.013" PMx_perVeh="0.0039" NOx_perVeh="0.11" fuel_perVeh="0.027"/>
      </edge>
   </interval>
   <interval begin="60" end="75" id="dump_all_15">
      <edge id="2/1to1/1">
         <lane id="2/1to1/1_0" sampledSeconds="5.9" CO_abs="0" CO2_abs="9.9e+003" HC_abs="1.7" PMx_abs="0.58" NOx_abs="16" fuel_abs="4"
            CO_normed="0" CO2_normed="6.1e+003" HC_normed="1.1" PMx_normed="0.36" NOx_normed="9.7" fuel_normed="2.4"
            CO_perVeh="0" CO2_perVeh="66" HC_perVeh="0.011" PMx_perVeh="0.0038" NOx_perVeh="0.1" fuel_perVeh="0.026"/>
      </edge>
      <edge id="3/1to2/1">
         <lane id="3/1to2/1_0" sampledSeconds="24" CO_abs="0" CO2_abs="3.9e+004" HC_abs="7.1" PMx_abs="2.2" NOx_abs="61" fuel_abs="16"
            CO_normed="0" CO2_normed="2.4e+004" HC_normed="4.3" PMx_normed="1.4" NOx_normed="38" fuel_normed="9.5"
            CO_perVeh="0" CO2_perVeh="67" HC_perVeh="0.012" PMx_perVeh="0.0039" NOx_perVeh="0.11" fuel_perVeh="0.027"/>
      </edge>
   </interval>
   <interval begin="60" end="75" id="dump_t1_15">
      <edge id="2/1to1/1">
         <lane id="2/1to1/1_0" sampledSeconds="5.9" CO_abs="0" CO2_abs="9.9e+003" HC_abs="1.7" PMx_abs="0.58" NOx_abs="16" fuel_abs="4"
            CO_normed="0" CO2_normed="6.1e+003" HC_normed="1.1" PMx_normed="0.36" NOx_normed="9.7" fuel_normed="2.4"
            CO_perVeh="0" CO2_perVeh="66" HC_perVeh="0.011" PMx_perVeh="0.0038" NOx_perVeh="0.1" fuel_perVeh="0.026"/>
      </edge>
      <edge id="3/1to2/1">
         <lane id="3/1to2/1_0" sampledSeconds="9.1" CO_abs="0" CO2_abs="1.5e+004" HC_abs="2.7" PMx_abs="0.89" NOx_abs="24" fuel_abs="6.1"
            CO_normed="0" CO2_normed="9.4e+003" HC_normed="1.6" PMx_normed="0.55" NOx_normed="15" fuel_normed="3.7"
            CO_perVeh="0" CO2_perVeh="66" HC_perVeh="0.011" PMx_perVeh="0.0038" NOx_perVeh="0.1" fuel_perVeh="0.026"/>
      </edge>
   </interval>
   <interval begin="60" end="75" id="dump_t2_15">
      <edge id="3/1to2/1">
         <lane id="3/1to2/1_0" sampledSeconds="15" CO_abs="0" CO2_abs="2.4e+004" HC_abs="4.4" PMx_abs="1.3" NOx_abs="37" fuel_abs="9.4"
            CO_normed="0" CO2_normed="1.5e+004" HC_normed="2.7" PMx_normed="0.83" NOx_normed="23" fuel_normed="5.8"
            CO_perVeh="0" CO2_perVeh="68" HC_perVeh="0.013" PMx_perVeh="0.0039" NOx_perVeh="0.11" fuel_perVeh="0.027"/>
      </edge>
   </interval>
   <interval begin="75" end="90" id="dump_all_15">
      <edge id="2/1to1/1">
         <lane id="2/1to1/1_0" sampledSeconds="23" CO_abs="0" CO2_abs="3.8e+004" HC_abs="6.9" PMx_abs="2.2" NOx_abs="61" fuel_abs="15"
            CO_normed="0" CO2_normed="2.4e+004" HC_normed="4.2" PMx_normed="1.4" NOx_normed="37" fuel_normed="9.4"
            CO_perVeh="0" CO2_perVeh="66" HC_perVeh="0.012" PMx_perVeh="0.0038" NOx_perVeh="0.11" fuel_perVeh="0.027"/>
      </edge>
      <edge id="3/1to2/1">
         <lane id="3/1to2/1_0" sampledSeconds="6.7" CO_abs="0" CO2_abs="1e+004" HC_abs="2" PMx_abs="0.6" NOx_abs="16" fuel_abs="4.2"
            CO_normed="0" CO2_normed="6.4e+003" HC_normed="1.2" PMx_normed="0.37" NOx_normed="10" fuel_normed="2.6"
            CO_perVeh="0" CO2_perVeh="68" HC_perVeh="0.013" PMx_perVeh="0.0039" NOx_perVeh="0.11" fuel_perVeh="0.027"/>
      </edge>
   </interval>
   <interval begin="75" end="90" id="dump_t1_15">
      <edge id="2/1to1/1">
         <lane id="2/1to1/1_0" sampledSeconds="15" CO_abs="0" CO2_abs="2.5e+004" HC_abs="4.4" PMx_abs="1.5" NOx_abs="40" fuel_abs="10"
            CO_normed="0" CO2_normed="1.5e+004" HC_normed="2.7" PMx_normed="0.9" NOx_normed="25" fuel_normed="6.2"
            CO_perVeh="0" CO2_perVeh="66" HC_perVeh="0.011" PMx_perVeh="0.0038" NOx_perVeh="0.1" fuel_perVeh="0.026"/>
      </edge>
   </interval>
   <interval begin="75" end="90" id="dump_t2_15">
      <edge id="2/1to1/1">
         <lane id="2/1to1/1_0" sampledSeconds="8.3" CO_abs="0" CO2_abs="1.3e+004" HC_abs="2.4" PMx_abs="0.75" NOx_abs="21" fuel_abs="5.2"
            CO_normed="0" CO2_normed="8.1e+003" HC_normed="1.5" PMx_normed="0.46" NOx_normed="13" fuel_normed="3.2"
            CO_perVeh="0" CO2_perVeh="68" HC_perVeh="0.013" PMx_perVeh="0.0039" NOx_perVeh="0.11" fuel_perVeh="0.027"/>
      </edge>
      <edge id="3/1to2/1">
         <lane id="3/1to2/1_0" sampledSeconds="6.7" CO_abs="0" CO2_abs="1e+004" HC_abs="2" PMx_abs="0.6" NOx_abs="16" fuel_abs="4.2"
            CO_normed="0" CO2_normed="6.4e+003" HC_normed="1.2" PMx_normed="0.37" NOx_normed="10" fuel_normed="2.6"
            CO_perVeh="0" CO2_perVeh="68" HC_perVeh="0.013" PMx_perVeh="0.0039" NOx_perVeh="0.11" fuel_perVeh="0.027"/>
      </edge>
   </interval>
   <interval begin="90" end="105" id="dump_all_15">
      <edge id="2/1to1/1">
         <lane id="2/1to1/1_0" sampledSeconds="30" CO_abs="0" CO2_abs="4.9e+004" HC_abs="8.8" PMx_abs="2.8" NOx_abs="77" fuel_abs="19"
            CO_normed="0" CO2_normed="3e+004" HC_normed="5.4" PMx_normed="1.7" NOx_normed="47" fuel_normed="12"
            CO_perVeh="0" CO2_perVeh="67" HC_perVeh="0.012" PMx_perVeh="0.0039" NOx_perVeh="0.11" fuel_perVeh="0.027"/>
      </edge>
   </interval>
   <interval begin="90" end="105" id="dump_t1_15">
      <edge id="2/1to1/1">
         <lane id="2/1to1/1_0" sampledSeconds="15" CO_abs="0" CO2_abs="2.5e+004" HC_abs="4.4" PMx_abs="1.5" NOx_abs="40" fuel_abs="10"
            CO_normed="0" CO2_normed="1.5e+004" HC_normed="2.7" PMx_normed="0.9" NOx_normed="25" fuel_normed="6.2"
            CO_perVeh="0" CO2_perVeh="66" HC_perVeh="0.011" PMx_perVeh="0.0038" NOx_perVeh="0.1" fuel_perVeh="0.026"/>
      </edge>
   </interval>
   <interval begin="90" end="105" id="dump_t2_15">
      <edge id="2/1to1/1">
         <lane id="2/1to1/1_0" sampledSeconds="15" CO_abs="0" CO2_abs="2.4e+004" HC_abs="4.4" PMx_abs="1.3" NOx_abs="37" fuel_abs="9.4"
            CO_normed="0" CO2_normed="1.5e+004" HC_normed="2.7" PMx_normed="0.83" NOx_normed="23" fuel_normed="5.8"
            CO_perVeh="0" CO2_perVeh="68" HC_perVeh="0.013" PMx_perVeh="0.0039" NOx_perVeh="0.11" fuel_perVeh="0.027"/>
      </edge>
   </interval>
   <interval begin="105" end="120" id="dump_all_15">
      <edge id="1/1to0/1">
         <lane id="1/1to0/1_0" sampledSeconds="0.85" CO_abs="0" CO2_abs="1.4e+003" HC_abs="0.25" PMx_abs="0.083" NOx_abs="2.3" fuel_abs="0.57"
            CO_normed="0" CO2_normed="8.8e+002" HC_normed="0.15" PMx_normed="0.051" NOx_normed="1.4" fuel_normed="0.35"
            CO_perVeh="0" CO2_perVeh="66" HC_perVeh="0.011" PMx_perVeh="0.0038" NOx_perVeh="0.1" fuel_perVeh="0.026"/>
      </edge>
      <edge id="2/1to1/1">
         <lane id="2/1to1/1_0" sampledSeconds="18" CO_abs="0" CO2_abs="2.9e+004" HC_abs="5.3" PMx_abs="1.7" NOx_abs="45" fuel_abs="12"
            CO_normed="0" CO2_normed="1.8e+004" HC_normed="3.3" PMx_normed="1" NOx_normed="28" fuel_normed="7.1"
            CO_perVeh="0" CO2_perVeh="68" HC_perVeh="0.012" PMx_perVeh="0.0039" NOx_perVeh="0.11" fuel_perVeh="0.027"/>
      </edge>
   </interval>
   <interval begin="105" end="120" id="dump_t1_15">
      <edge id="1/1to0/1">
         <lane id="1/1to0/1_0" sampledSeconds="0.85" CO_abs="0" CO2_abs="1.4e+003" HC_abs="0.25" PMx_abs="0.083" NOx_abs="2.3" fuel_abs="0.57"
            CO_normed="0" CO2_normed="8.8e+002" HC_normed="0.15" PMx_normed="0.051" NOx_normed="1.4" fuel_normed="0.35"
            CO_perVeh="0" CO2_perVeh="66" HC_perVeh="0.011" PMx_perVeh="0.0038" NOx_perVeh="0.1" fuel_perVeh="0.026"/>
      </edge>
      <edge id="2/1to1/1">
         <lane id="2/1to1/1_0" sampledSeconds="3.2" CO_abs="0" CO2_abs="5.3e+003" HC_abs="0.93" PMx_abs="0.31" NOx_abs="8.4" fuel_abs="2.1"
            CO_normed="0" CO2_normed="3.3e+003" HC_normed="0.57" PMx_normed="0.19" NOx_normed="5.2" fuel_normed="1.3"
            CO_perVeh="0" CO2_perVeh="66" HC_perVeh="0.011" PMx_perVeh="0.0038" NOx_perVeh="0.1" fuel_perVeh="0.026"/>
      </edge>
   </interval>
   <interval begin="105" end="120" id="dump_t2_15">
      <edge id="2/1to1/1">
         <lane id="2/1to1/1_0" sampledSeconds="15" CO_abs="0" CO2_abs="2.4e+004" HC_abs="4.4" PMx_abs="1.3" NOx_abs="37" fuel_abs="9.4"
            CO_normed="0" CO2_normed="1.5e+004" HC_normed="2.7" PMx_normed="0.83" NOx_normed="23" fuel_normed="5.8"
            CO_perVeh="0" CO2_perVeh="68" HC_perVeh="0.013" PMx_perVeh="0.0039" NOx_perVeh="0.11" fuel_perVeh="0.027"/>
      </edge>
   </interval>
   <interval begin="120" end="135" id="dump_all_15">
      <edge id="1/1to0/1">
         <lane id="1/1to0/1_0" sampledSeconds="0.94" CO_abs="0" CO2_abs="1.5e+003" HC_abs="0.28" PMx_abs="0.085" NOx_abs="2.3" fuel_abs="0.59"
            CO_normed="0" CO2_normed="9.1e+002" HC_normed="0.17" PMx_normed="0.052" NOx_normed="1.4" fuel_normed="0.36"
            CO_perVeh="0" CO2_perVeh="68" HC_perVeh="0.013" PMx_perVeh="0.0039" NOx_perVeh="0.11" fuel_perVeh="0.027"/>
      </edge>
      <edge id="2/1to1/1">
         <lane id="2/1to1/1_0" sampledSeconds="5.1" CO_abs="0" CO2_abs="8e+003" HC_abs="1.5" PMx_abs="0.45" NOx_abs="12" fuel_abs="3.2"
            CO_normed="0" CO2_normed="4.9e+003" HC_normed="0.91" PMx_normed="0.28" NOx_normed="7.7" fuel_normed="1.9"
            CO_perVeh="0" CO2_perVeh="68" HC_perVeh="0.013" PMx_perVeh="0.0039" NOx_perVeh="0.11" fuel_perVeh="0.027"/>
      </edge>
   </interval>
   <interval begin="120" end="135" id="dump_t1_15">
   </interval>
   <interval begin="120" end="135" id="dump_t2_15">
      <edge id="1/1to0/1">
         <lane id="1/1to0/1_0" sampledSeconds="0.94" CO_abs="0" CO2_abs="1.5e+003" HC_abs="0.28" PMx_abs="0.085" NOx_abs="2.3" fuel_abs="0.59"
            CO_normed="0" CO2_normed="9.1e+002" HC_normed="0.17" PMx_normed="0.052" NOx_normed="1.4" fuel_normed="0.36"
            CO_perVeh="0" CO2_perVeh="68" HC_perVeh="0.013" PMx_perVeh="0.0039" NOx_perVeh="0.11" fuel_perVeh="0.027"/>
      </edge>
      <edge id="2/1to1/1">
         <lane id="2/1to1/1_0" sampledSeconds="5.1" CO_abs="0" CO2_abs="8e+003" HC_abs="1.5" PMx_abs="0.45" NOx_abs="12" fuel_abs="3.2"
            CO_normed="0" CO2_normed="4.9e+003" HC_normed="0.91" PMx_normed="0.28" NOx_normed="7.7" fuel_normed="1.9"
            CO_perVeh="0" CO2_perVeh="68" HC_perVeh="0.013" PMx_perVeh="0.0039" NOx_perVeh="0.11" fuel_perVeh="0.027"/>
      </edge>
   </interval>
   <interval begin="135" end="150" id="dump_all_15">
   </interval>
   <interval begin="135" end="150" id="dump_t1_15">
   </interval>
   <interval begin="135" end="150" id="dump_t2_15">
   </interval>
</netstats>
