<?xml version="1.0" encoding="UTF-8"?>
<routes xmlns:xsi="http://www.w3.org/2001/XMLSchema-instance" xsi:noNamespaceSchemaLocation="http://sumo.dlr.de/xsd/routes_file.xsd">
    <route id="r0" edges="beg beg2"/>
    <flow id="low"       begin="0"    end="1000" route="r0" vehsPerHour="100" departSpeed="max" departPos="-100"/>
    <flow id="lowTruck"  begin="0"    end="1000" route="r0" vehsPerHour="10"  departSpeed="max" departPos="-100" type="truck"/>
    <flow id="high"      begin="2000" end="3000" route="r0" vehsPerHour="1500" departSpeed="max" departPos="-100"/>
    <flow id="highTruck" begin="2000" end="3000" route="r0" vehsPerHour="150"  departSpeed="max" departPos="-100" type="truck"/>
</routes>
