<?xml version="1.0" encoding="UTF-8"?>

<!-- generated on Mon Apr 16 10:54:51 2018 by SUMO netgenerate Version 2e5ef53
This data file and the accompanying materials
are made available under the terms of the Eclipse Public License v2.0
which accompanies this distribution, and is available at
http://www.eclipse.org/legal/epl-v20.html
SPDX-License-Identifier: EPL-2.0
<configuration xmlns:xsi="http://www.w3.org/2001/XMLSchema-instance" xsi:noNamespaceSchemaLocation="http://sumo.dlr.de/xsd/netgenerateConfiguration.xsd">

    <grid_network>
        <grid value="true"/>
        <grid.number value="10"/>
        <grid.length value="400"/>
    </grid_network>

    <output>
        <write-license value="true"/>
        <output-file value="net.net.xml"/>
        <plain-output-prefix value="output/plain"/>
    </output>

    <report>
        <xml-validation value="never"/>
    </report>

</configuration>
-->

<net version="0.27" xmlns:xsi="http://www.w3.org/2001/XMLSchema-instance" xsi:noNamespaceSchemaLocation="http://sumo.dlr.de/xsd/net_file.xsd">

    <location netOffset="0.00,0.00" convBoundary="0.00,0.00,3600.00,3600.00" origBoundary="0.00,0.00,3600.00,3600.00" projParameter="!"/>

    <edge id=":A0_0" function="internal">
        <lane id=":A0_0_0" index="0" speed="13.90" length="7.74" shape="-1.60,3.20 -1.30,1.10 -0.40,-0.40 1.10,-1.30 3.20,-1.60"/>
    </edge>
    <edge id=":A0_1" function="internal">
        <lane id=":A0_1_0" index="0" speed="13.90" length="2.66" shape="-1.60,3.20 -0.80,2.00 0.00,1.60 0.29,1.74"/>
    </edge>
    <edge id=":A0_4" function="internal">
        <lane id=":A0_4_0" index="0" speed="13.90" length="2.01" shape="0.29,1.74 0.80,2.00 1.60,3.20"/>
    </edge>
    <edge id=":A0_2" function="internal">
        <lane id=":A0_2_0" index="0" speed="13.90" length="2.58" shape="3.20,1.60 2.50,1.70 2.00,2.00 1.70,2.50 1.60,3.20"/>
    </edge>
    <edge id=":A0_3" function="internal">
        <lane id=":A0_3_0" index="0" speed="13.90" length="2.08" shape="3.20,1.60 2.00,0.80 1.71,0.23"/>
    </edge>
    <edge id=":A0_5" function="internal">
        <lane id=":A0_5_0" index="0" speed="13.90" length="2.59" shape="1.71,0.23 1.60,-0.00 2.00,-0.80 3.20,-1.60"/>
    </edge>
    <edge id=":A1_0" function="internal">
        <lane id=":A1_0_0" index="0" speed="13.90" length="9.40" shape="-1.60,404.70 -1.60,395.30"/>
    </edge>
    <edge id=":A1_1" function="internal">
        <lane id=":A1_1_0" index="0" speed="13.90" length="5.08" shape="-1.60,404.70 -1.21,401.94 -0.02,399.98"/>
    </edge>
    <edge id=":A1_2" function="internal">
        <lane id=":A1_2_0" index="0" speed="13.90" length="2.34" shape="-1.60,404.70 -0.80,403.50 0.00,403.10"/>
    </edge>
    <edge id=":A1_9" function="internal">
        <lane id=":A1_9_0" index="0" speed="13.90" length="5.08" shape="-0.02,399.98 1.94,398.79 4.70,398.40"/>
    </edge>
    <edge id=":A1_10" function="internal">
        <lane id=":A1_10_0" index="0" speed="13.90" length="2.34" shape="0.00,403.10 0.80,403.50 1.60,404.70"/>
    </edge>
    <edge id=":A1_3" function="internal">
        <lane id=":A1_3_0" index="0" speed="13.90" length="5.00" shape="4.70,401.60 3.34,401.79 2.37,402.38 1.79,403.34 1.60,404.70"/>
    </edge>
    <edge id=":A1_4" function="internal">
        <lane id=":A1_4_0" index="0" speed="13.90" length="10.16" shape="4.70,401.60 1.94,401.21 -0.02,400.03 -1.21,398.06 -1.60,395.30"/>
    </edge>
    <edge id=":A1_5" function="internal">
        <lane id=":A1_5_0" index="0" speed="13.90" length="4.67" shape="4.70,401.60 3.50,400.80 3.10,400.00 3.50,399.20 4.70,398.40"/>
    </edge>
    <edge id=":A1_6" function="internal">
        <lane id=":A1_6_0" index="0" speed="13.90" length="5.00" shape="1.60,395.30 1.79,396.66 2.38,397.62 3.34,398.21 4.70,398.40"/>
    </edge>
    <edge id=":A1_7" function="internal">
        <lane id=":A1_7_0" index="0" speed="13.90" length="9.40" shape="1.60,395.30 1.60,404.70"/>
    </edge>
    <edge id=":A1_8" function="internal">
        <lane id=":A1_8_0" index="0" speed="13.90" length="2.34" shape="1.60,395.30 0.80,396.50 0.00,396.90"/>
    </edge>
    <edge id=":A1_11" function="internal">
        <lane id=":A1_11_0" index="0" speed="13.90" length="2.34" shape="0.00,396.90 -0.80,396.50 -1.60,395.30"/>
    </edge>
    <edge id=":A2_0" function="internal">
        <lane id=":A2_0_0" index="0" speed="13.90" length="9.40" shape="-1.60,804.70 -1.60,795.30"/>
    </edge>
    <edge id=":A2_1" function="internal">
        <lane id=":A2_1_0" index="0" speed="13.90" length="5.08" shape="-1.60,804.70 -1.21,801.94 -0.02,799.98"/>
    </edge>
    <edge id=":A2_2" function="internal">
        <lane id=":A2_2_0" index="0" speed="13.90" length="2.34" shape="-1.60,804.70 -0.80,803.50 0.00,803.10"/>
    </edge>
    <edge id=":A2_9" function="internal">
        <lane id=":A2_9_0" index="0" speed="13.90" length="5.08" shape="-0.02,799.98 1.94,798.79 4.70,798.40"/>
    </edge>
    <edge id=":A2_10" function="internal">
        <lane id=":A2_10_0" index="0" speed="13.90" length="2.34" shape="0.00,803.10 0.80,803.50 1.60,804.70"/>
    </edge>
    <edge id=":A2_3" function="internal">
        <lane id=":A2_3_0" index="0" speed="13.90" length="5.00" shape="4.70,801.60 3.34,801.79 2.37,802.38 1.79,803.34 1.60,804.70"/>
    </edge>
    <edge id=":A2_4" function="internal">
        <lane id=":A2_4_0" index="0" speed="13.90" length="10.16" shape="4.70,801.60 1.94,801.21 -0.02,800.03 -1.21,798.06 -1.60,795.30"/>
    </edge>
    <edge id=":A2_5" function="internal">
        <lane id=":A2_5_0" index="0" speed="13.90" length="4.67" shape="4.70,801.60 3.50,800.80 3.10,800.00 3.50,799.20 4.70,798.40"/>
    </edge>
    <edge id=":A2_6" function="internal">
        <lane id=":A2_6_0" index="0" speed="13.90" length="5.00" shape="1.60,795.30 1.79,796.66 2.38,797.62 3.34,798.21 4.70,798.40"/>
    </edge>
    <edge id=":A2_7" function="internal">
        <lane id=":A2_7_0" index="0" speed="13.90" length="9.40" shape="1.60,795.30 1.60,804.70"/>
    </edge>
    <edge id=":A2_8" function="internal">
        <lane id=":A2_8_0" index="0" speed="13.90" length="2.34" shape="1.60,795.30 0.80,796.50 0.00,796.90"/>
    </edge>
    <edge id=":A2_11" function="internal">
        <lane id=":A2_11_0" index="0" speed="13.90" length="2.34" shape="0.00,796.90 -0.80,796.50 -1.60,795.30"/>
    </edge>
    <edge id=":A3_0" function="internal">
        <lane id=":A3_0_0" index="0" speed="13.90" length="9.40" shape="-1.60,1204.70 -1.60,1195.30"/>
    </edge>
    <edge id=":A3_1" function="internal">
        <lane id=":A3_1_0" index="0" speed="13.90" length="5.08" shape="-1.60,1204.70 -1.21,1201.94 -0.02,1199.97"/>
    </edge>
    <edge id=":A3_2" function="internal">
        <lane id=":A3_2_0" index="0" speed="13.90" length="2.34" shape="-1.60,1204.70 -0.80,1203.50 0.00,1203.10"/>
    </edge>
    <edge id=":A3_9" function="internal">
        <lane id=":A3_9_0" index="0" speed="13.90" length="5.08" shape="-0.02,1199.97 1.94,1198.79 4.70,1198.40"/>
    </edge>
    <edge id=":A3_10" function="internal">
        <lane id=":A3_10_0" index="0" speed="13.90" length="2.34" shape="0.00,1203.10 0.80,1203.50 1.60,1204.70"/>
    </edge>
    <edge id=":A3_3" function="internal">
        <lane id=":A3_3_0" index="0" speed="13.90" length="5.00" shape="4.70,1201.60 3.34,1201.79 2.37,1202.38 1.79,1203.34 1.60,1204.70"/>
    </edge>
    <edge id=":A3_4" function="internal">
        <lane id=":A3_4_0" index="0" speed="13.90" length="10.16" shape="4.70,1201.60 1.94,1201.21 -0.02,1200.03 -1.21,1198.06 -1.60,1195.30"/>
    </edge>
    <edge id=":A3_5" function="internal">
        <lane id=":A3_5_0" index="0" speed="13.90" length="4.67" shape="4.70,1201.60 3.50,1200.80 3.10,1200.00 3.50,1199.20 4.70,1198.40"/>
    </edge>
    <edge id=":A3_6" function="internal">
        <lane id=":A3_6_0" index="0" speed="13.90" length="5.00" shape="1.60,1195.30 1.79,1196.66 2.38,1197.62 3.34,1198.21 4.70,1198.40"/>
    </edge>
    <edge id=":A3_7" function="internal">
        <lane id=":A3_7_0" index="0" speed="13.90" length="9.40" shape="1.60,1195.30 1.60,1204.70"/>
    </edge>
    <edge id=":A3_8" function="internal">
        <lane id=":A3_8_0" index="0" speed="13.90" length="2.34" shape="1.60,1195.30 0.80,1196.50 0.00,1196.90"/>
    </edge>
    <edge id=":A3_11" function="internal">
        <lane id=":A3_11_0" index="0" speed="13.90" length="2.34" shape="0.00,1196.90 -0.80,1196.50 -1.60,1195.30"/>
    </edge>
    <edge id=":A4_0" function="internal">
        <lane id=":A4_0_0" index="0" speed="13.90" length="9.40" shape="-1.60,1604.70 -1.60,1595.30"/>
    </edge>
    <edge id=":A4_1" function="internal">
        <lane id=":A4_1_0" index="0" speed="13.90" length="5.08" shape="-1.60,1604.70 -1.21,1601.94 -0.02,1599.97"/>
    </edge>
    <edge id=":A4_2" function="internal">
        <lane id=":A4_2_0" index="0" speed="13.90" length="2.34" shape="-1.60,1604.70 -0.80,1603.50 0.00,1603.10"/>
    </edge>
    <edge id=":A4_9" function="internal">
        <lane id=":A4_9_0" index="0" speed="13.90" length="5.08" shape="-0.02,1599.97 1.94,1598.79 4.70,1598.40"/>
    </edge>
    <edge id=":A4_10" function="internal">
        <lane id=":A4_10_0" index="0" speed="13.90" length="2.34" shape="0.00,1603.10 0.80,1603.50 1.60,1604.70"/>
    </edge>
    <edge id=":A4_3" function="internal">
        <lane id=":A4_3_0" index="0" speed="13.90" length="5.00" shape="4.70,1601.60 3.34,1601.79 2.37,1602.37 1.79,1603.34 1.60,1604.70"/>
    </edge>
    <edge id=":A4_4" function="internal">
        <lane id=":A4_4_0" index="0" speed="13.90" length="10.16" shape="4.70,1601.60 1.94,1601.21 -0.02,1600.02 -1.21,1598.06 -1.60,1595.30"/>
    </edge>
    <edge id=":A4_5" function="internal">
        <lane id=":A4_5_0" index="0" speed="13.90" length="4.67" shape="4.70,1601.60 3.50,1600.80 3.10,1600.00 3.50,1599.20 4.70,1598.40"/>
    </edge>
    <edge id=":A4_6" function="internal">
        <lane id=":A4_6_0" index="0" speed="13.90" length="5.00" shape="1.60,1595.30 1.79,1596.66 2.38,1597.62 3.34,1598.21 4.70,1598.40"/>
    </edge>
    <edge id=":A4_7" function="internal">
        <lane id=":A4_7_0" index="0" speed="13.90" length="9.40" shape="1.60,1595.30 1.60,1604.70"/>
    </edge>
    <edge id=":A4_8" function="internal">
        <lane id=":A4_8_0" index="0" speed="13.90" length="2.34" shape="1.60,1595.30 0.80,1596.50 0.00,1596.90"/>
    </edge>
    <edge id=":A4_11" function="internal">
        <lane id=":A4_11_0" index="0" speed="13.90" length="2.34" shape="0.00,1596.90 -0.80,1596.50 -1.60,1595.30"/>
    </edge>
    <edge id=":A5_0" function="internal">
        <lane id=":A5_0_0" index="0" speed="13.90" length="9.40" shape="-1.60,2004.70 -1.60,1995.30"/>
    </edge>
    <edge id=":A5_1" function="internal">
        <lane id=":A5_1_0" index="0" speed="13.90" length="5.08" shape="-1.60,2004.70 -1.21,2001.94 -0.02,1999.97"/>
    </edge>
    <edge id=":A5_2" function="internal">
        <lane id=":A5_2_0" index="0" speed="13.90" length="2.34" shape="-1.60,2004.70 -0.80,2003.50 0.00,2003.10"/>
    </edge>
    <edge id=":A5_9" function="internal">
        <lane id=":A5_9_0" index="0" speed="13.90" length="5.08" shape="-0.02,1999.97 1.94,1998.79 4.70,1998.40"/>
    </edge>
    <edge id=":A5_10" function="internal">
        <lane id=":A5_10_0" index="0" speed="13.90" length="2.34" shape="0.00,2003.10 0.80,2003.50 1.60,2004.70"/>
    </edge>
    <edge id=":A5_3" function="internal">
        <lane id=":A5_3_0" index="0" speed="13.90" length="5.00" shape="4.70,2001.60 3.34,2001.79 2.37,2002.37 1.79,2003.34 1.60,2004.70"/>
    </edge>
    <edge id=":A5_4" function="internal">
        <lane id=":A5_4_0" index="0" speed="13.90" length="10.16" shape="4.70,2001.60 1.94,2001.21 -0.02,2000.02 -1.21,1998.06 -1.60,1995.30"/>
    </edge>
    <edge id=":A5_5" function="internal">
        <lane id=":A5_5_0" index="0" speed="13.90" length="4.67" shape="4.70,2001.60 3.50,2000.80 3.10,2000.00 3.50,1999.20 4.70,1998.40"/>
    </edge>
    <edge id=":A5_6" function="internal">
        <lane id=":A5_6_0" index="0" speed="13.90" length="5.00" shape="1.60,1995.30 1.79,1996.66 2.38,1997.62 3.34,1998.21 4.70,1998.40"/>
    </edge>
    <edge id=":A5_7" function="internal">
        <lane id=":A5_7_0" index="0" speed="13.90" length="9.40" shape="1.60,1995.30 1.60,2004.70"/>
    </edge>
    <edge id=":A5_8" function="internal">
        <lane id=":A5_8_0" index="0" speed="13.90" length="2.34" shape="1.60,1995.30 0.80,1996.50 0.00,1996.90"/>
    </edge>
    <edge id=":A5_11" function="internal">
        <lane id=":A5_11_0" index="0" speed="13.90" length="2.34" shape="0.00,1996.90 -0.80,1996.50 -1.60,1995.30"/>
    </edge>
    <edge id=":A6_0" function="internal">
        <lane id=":A6_0_0" index="0" speed="13.90" length="9.40" shape="-1.60,2404.70 -1.60,2395.30"/>
    </edge>
    <edge id=":A6_1" function="internal">
        <lane id=":A6_1_0" index="0" speed="13.90" length="5.08" shape="-1.60,2404.70 -1.21,2401.94 -0.02,2399.97"/>
    </edge>
    <edge id=":A6_2" function="internal">
        <lane id=":A6_2_0" index="0" speed="13.90" length="2.34" shape="-1.60,2404.70 -0.80,2403.50 0.00,2403.10"/>
    </edge>
    <edge id=":A6_9" function="internal">
        <lane id=":A6_9_0" index="0" speed="13.90" length="5.08" shape="-0.02,2399.97 1.94,2398.79 4.70,2398.40"/>
    </edge>
    <edge id=":A6_10" function="internal">
        <lane id=":A6_10_0" index="0" speed="13.90" length="2.34" shape="0.00,2403.10 0.80,2403.50 1.60,2404.70"/>
    </edge>
    <edge id=":A6_3" function="internal">
        <lane id=":A6_3_0" index="0" speed="13.90" length="5.00" shape="4.70,2401.60 3.34,2401.79 2.37,2402.38 1.79,2403.34 1.60,2404.70"/>
    </edge>
    <edge id=":A6_4" function="internal">
        <lane id=":A6_4_0" index="0" speed="13.90" length="10.16" shape="4.70,2401.60 1.94,2401.21 -0.02,2400.02 -1.21,2398.06 -1.60,2395.30"/>
    </edge>
    <edge id=":A6_5" function="internal">
        <lane id=":A6_5_0" index="0" speed="13.90" length="4.67" shape="4.70,2401.60 3.50,2400.80 3.10,2400.00 3.50,2399.20 4.70,2398.40"/>
    </edge>
    <edge id=":A6_6" function="internal">
        <lane id=":A6_6_0" index="0" speed="13.90" length="5.00" shape="1.60,2395.30 1.79,2396.66 2.38,2397.62 3.34,2398.21 4.70,2398.40"/>
    </edge>
    <edge id=":A6_7" function="internal">
        <lane id=":A6_7_0" index="0" speed="13.90" length="9.40" shape="1.60,2395.30 1.60,2404.70"/>
    </edge>
    <edge id=":A6_8" function="internal">
        <lane id=":A6_8_0" index="0" speed="13.90" length="2.34" shape="1.60,2395.30 0.80,2396.50 0.00,2396.90"/>
    </edge>
    <edge id=":A6_11" function="internal">
        <lane id=":A6_11_0" index="0" speed="13.90" length="2.34" shape="0.00,2396.90 -0.80,2396.50 -1.60,2395.30"/>
    </edge>
    <edge id=":A7_0" function="internal">
        <lane id=":A7_0_0" index="0" speed="13.90" length="9.40" shape="-1.60,2804.70 -1.60,2795.30"/>
    </edge>
    <edge id=":A7_1" function="internal">
        <lane id=":A7_1_0" index="0" speed="13.90" length="5.08" shape="-1.60,2804.70 -1.21,2801.94 -0.02,2799.97"/>
    </edge>
    <edge id=":A7_2" function="internal">
        <lane id=":A7_2_0" index="0" speed="13.90" length="2.34" shape="-1.60,2804.70 -0.80,2803.50 0.00,2803.10"/>
    </edge>
    <edge id=":A7_9" function="internal">
        <lane id=":A7_9_0" index="0" speed="13.90" length="5.08" shape="-0.02,2799.97 1.94,2798.79 4.70,2798.40"/>
    </edge>
    <edge id=":A7_10" function="internal">
        <lane id=":A7_10_0" index="0" speed="13.90" length="2.34" shape="0.00,2803.10 0.80,2803.50 1.60,2804.70"/>
    </edge>
    <edge id=":A7_3" function="internal">
        <lane id=":A7_3_0" index="0" speed="13.90" length="5.00" shape="4.70,2801.60 3.34,2801.79 2.37,2802.38 1.79,2803.34 1.60,2804.70"/>
    </edge>
    <edge id=":A7_4" function="internal">
        <lane id=":A7_4_0" index="0" speed="13.90" length="10.16" shape="4.70,2801.60 1.94,2801.21 -0.02,2800.02 -1.21,2798.06 -1.60,2795.30"/>
    </edge>
    <edge id=":A7_5" function="internal">
        <lane id=":A7_5_0" index="0" speed="13.90" length="4.67" shape="4.70,2801.60 3.50,2800.80 3.10,2800.00 3.50,2799.20 4.70,2798.40"/>
    </edge>
    <edge id=":A7_6" function="internal">
        <lane id=":A7_6_0" index="0" speed="13.90" length="5.00" shape="1.60,2795.30 1.79,2796.66 2.38,2797.62 3.34,2798.21 4.70,2798.40"/>
    </edge>
    <edge id=":A7_7" function="internal">
        <lane id=":A7_7_0" index="0" speed="13.90" length="9.40" shape="1.60,2795.30 1.60,2804.70"/>
    </edge>
    <edge id=":A7_8" function="internal">
        <lane id=":A7_8_0" index="0" speed="13.90" length="2.34" shape="1.60,2795.30 0.80,2796.50 0.00,2796.90"/>
    </edge>
    <edge id=":A7_11" function="internal">
        <lane id=":A7_11_0" index="0" speed="13.90" length="2.34" shape="0.00,2796.90 -0.80,2796.50 -1.60,2795.30"/>
    </edge>
    <edge id=":A8_0" function="internal">
        <lane id=":A8_0_0" index="0" speed="13.90" length="9.40" shape="-1.60,3204.70 -1.60,3195.30"/>
    </edge>
    <edge id=":A8_1" function="internal">
        <lane id=":A8_1_0" index="0" speed="13.90" length="5.08" shape="-1.60,3204.70 -1.21,3201.94 -0.02,3199.97"/>
    </edge>
    <edge id=":A8_2" function="internal">
        <lane id=":A8_2_0" index="0" speed="13.90" length="2.34" shape="-1.60,3204.70 -0.80,3203.50 0.00,3203.10"/>
    </edge>
    <edge id=":A8_9" function="internal">
        <lane id=":A8_9_0" index="0" speed="13.90" length="5.08" shape="-0.02,3199.97 1.94,3198.79 4.70,3198.40"/>
    </edge>
    <edge id=":A8_10" function="internal">
        <lane id=":A8_10_0" index="0" speed="13.90" length="2.34" shape="0.00,3203.10 0.80,3203.50 1.60,3204.70"/>
    </edge>
    <edge id=":A8_3" function="internal">
        <lane id=":A8_3_0" index="0" speed="13.90" length="5.00" shape="4.70,3201.60 3.34,3201.79 2.38,3202.38 1.79,3203.34 1.60,3204.70"/>
    </edge>
    <edge id=":A8_4" function="internal">
        <lane id=":A8_4_0" index="0" speed="13.90" length="10.16" shape="4.70,3201.60 1.94,3201.21 -0.02,3200.02 -1.21,3198.06 -1.60,3195.30"/>
    </edge>
    <edge id=":A8_5" function="internal">
        <lane id=":A8_5_0" index="0" speed="13.90" length="4.67" shape="4.70,3201.60 3.50,3200.80 3.10,3200.00 3.50,3199.20 4.70,3198.40"/>
    </edge>
    <edge id=":A8_6" function="internal">
        <lane id=":A8_6_0" index="0" speed="13.90" length="5.00" shape="1.60,3195.30 1.79,3196.66 2.38,3197.62 3.34,3198.21 4.70,3198.40"/>
    </edge>
    <edge id=":A8_7" function="internal">
        <lane id=":A8_7_0" index="0" speed="13.90" length="9.40" shape="1.60,3195.30 1.60,3204.70"/>
    </edge>
    <edge id=":A8_8" function="internal">
        <lane id=":A8_8_0" index="0" speed="13.90" length="2.34" shape="1.60,3195.30 0.80,3196.50 0.00,3196.90"/>
    </edge>
    <edge id=":A8_11" function="internal">
        <lane id=":A8_11_0" index="0" speed="13.90" length="2.34" shape="0.00,3196.90 -0.80,3196.50 -1.60,3195.30"/>
    </edge>
    <edge id=":A9_0" function="internal">
        <lane id=":A9_0_0" index="0" speed="13.90" length="7.74" shape="3.20,3601.60 1.10,3601.30 -0.40,3600.40 -1.30,3598.90 -1.60,3596.80"/>
    </edge>
    <edge id=":A9_1" function="internal">
        <lane id=":A9_1_0" index="0" speed="13.90" length="2.66" shape="3.20,3601.60 2.00,3600.80 1.60,3600.00 1.74,3599.71"/>
    </edge>
    <edge id=":A9_4" function="internal">
        <lane id=":A9_4_0" index="0" speed="13.90" length="2.01" shape="1.74,3599.71 2.00,3599.20 3.20,3598.40"/>
    </edge>
    <edge id=":A9_2" function="internal">
        <lane id=":A9_2_0" index="0" speed="13.90" length="2.58" shape="1.60,3596.80 1.70,3597.50 2.00,3598.00 2.50,3598.30 3.20,3598.40"/>
    </edge>
    <edge id=":A9_3" function="internal">
        <lane id=":A9_3_0" index="0" speed="13.90" length="2.08" shape="1.60,3596.80 0.80,3598.00 0.23,3598.29"/>
    </edge>
    <edge id=":A9_5" function="internal">
        <lane id=":A9_5_0" index="0" speed="13.90" length="2.59" shape="0.23,3598.29 0.00,3598.40 -0.80,3598.00 -1.60,3596.80"/>
    </edge>
    <edge id=":B0_0" function="internal">
        <lane id=":B0_0_0" index="0" speed="13.90" length="5.00" shape="398.40,4.70 398.21,3.34 397.62,2.37 396.66,1.79 395.30,1.60"/>
    </edge>
    <edge id=":B0_1" function="internal">
        <lane id=":B0_1_0" index="0" speed="13.90" length="10.16" shape="398.40,4.70 398.79,1.94 399.97,-0.02 401.94,-1.21 404.70,-1.60"/>
    </edge>
    <edge id=":B0_2" function="internal">
        <lane id=":B0_2_0" index="0" speed="13.90" length="4.67" shape="398.40,4.70 399.20,3.50 400.00,3.10 400.80,3.50 401.60,4.70"/>
    </edge>
    <edge id=":B0_3" function="internal">
        <lane id=":B0_3_0" index="0" speed="13.90" length="5.00" shape="404.70,1.60 403.34,1.79 402.38,2.38 401.79,3.34 401.60,4.70"/>
    </edge>
    <edge id=":B0_4" function="internal">
        <lane id=":B0_4_0" index="0" speed="13.90" length="9.40" shape="404.70,1.60 395.30,1.60"/>
    </edge>
    <edge id=":B0_5" function="internal">
        <lane id=":B0_5_0" index="0" speed="13.90" length="2.34" shape="404.70,1.60 403.50,0.80 403.10,0.00"/>
    </edge>
    <edge id=":B0_9" function="internal">
        <lane id=":B0_9_0" index="0" speed="13.90" length="2.34" shape="403.10,0.00 403.50,-0.80 404.70,-1.60"/>
    </edge>
    <edge id=":B0_6" function="internal">
        <lane id=":B0_6_0" index="0" speed="13.90" length="9.40" shape="395.30,-1.60 404.70,-1.60"/>
    </edge>
    <edge id=":B0_7" function="internal">
        <lane id=":B0_7_0" index="0" speed="13.90" length="5.08" shape="395.30,-1.60 398.06,-1.21 400.02,-0.02"/>
    </edge>
    <edge id=":B0_8" function="internal">
        <lane id=":B0_8_0" index="0" speed="13.90" length="2.34" shape="395.30,-1.60 396.50,-0.80 396.90,0.00"/>
    </edge>
    <edge id=":B0_10" function="internal">
        <lane id=":B0_10_0" index="0" speed="13.90" length="5.08" shape="400.02,-0.02 401.21,1.94 401.60,4.70"/>
    </edge>
    <edge id=":B0_11" function="internal">
        <lane id=":B0_11_0" index="0" speed="13.90" length="2.34" shape="396.90,0.00 396.50,0.80 395.30,1.60"/>
    </edge>
    <edge id=":B1_0" function="internal">
        <lane id=":B1_0_0" index="0" speed="13.90" length="5.00" shape="398.40,404.70 398.21,403.34 397.62,402.38 396.66,401.79 395.30,401.60"/>
    </edge>
    <edge id=":B1_1" function="internal">
        <lane id=":B1_1_0" index="0" speed="13.90" length="9.40" shape="398.40,404.70 398.40,395.30"/>
    </edge>
    <edge id=":B1_2" function="internal">
        <lane id=":B1_2_0" index="0" speed="13.90" length="5.08" shape="398.40,404.70 398.79,401.94 399.97,399.98"/>
    </edge>
    <edge id=":B1_3" function="internal">
        <lane id=":B1_3_0" index="0" speed="13.90" length="2.34" shape="398.40,404.70 399.20,403.50 400.00,403.10"/>
    </edge>
    <edge id=":B1_16" function="internal">
        <lane id=":B1_16_0" index="0" speed="13.90" length="5.08" shape="399.97,399.98 401.94,398.79 404.70,398.40"/>
    </edge>
    <edge id=":B1_17" function="internal">
        <lane id=":B1_17_0" index="0" speed="13.90" length="2.34" shape="400.00,403.10 400.80,403.50 401.60,404.70"/>
    </edge>
    <edge id=":B1_4" function="internal">
        <lane id=":B1_4_0" index="0" speed="13.90" length="5.00" shape="404.70,401.60 403.34,401.79 402.38,402.38 401.79,403.34 401.60,404.70"/>
    </edge>
    <edge id=":B1_5" function="internal">
        <lane id=":B1_5_0" index="0" speed="13.90" length="9.40" shape="404.70,401.60 395.30,401.60"/>
    </edge>
    <edge id=":B1_6" function="internal">
        <lane id=":B1_6_0" index="0" speed="13.90" length="10.16" shape="404.70,401.60 401.94,401.21 399.98,400.03 398.79,398.06 398.40,395.30"/>
    </edge>
    <edge id=":B1_7" function="internal">
        <lane id=":B1_7_0" index="0" speed="13.90" length="4.67" shape="404.70,401.60 403.50,400.80 403.10,400.00 403.50,399.20 404.70,398.40"/>
    </edge>
    <edge id=":B1_8" function="internal">
        <lane id=":B1_8_0" index="0" speed="13.90" length="5.00" shape="401.60,395.30 401.79,396.66 402.38,397.62 403.34,398.21 404.70,398.40"/>
    </edge>
    <edge id=":B1_9" function="internal">
        <lane id=":B1_9_0" index="0" speed="13.90" length="9.40" shape="401.60,395.30 401.60,404.70"/>
    </edge>
    <edge id=":B1_10" function="internal">
        <lane id=":B1_10_0" index="0" speed="13.90" length="5.08" shape="401.60,395.30 401.21,398.06 400.03,400.02"/>
    </edge>
    <edge id=":B1_11" function="internal">
        <lane id=":B1_11_0" index="0" speed="13.90" length="2.34" shape="401.60,395.30 400.80,396.50 400.00,396.90"/>
    </edge>
    <edge id=":B1_18" function="internal">
        <lane id=":B1_18_0" index="0" speed="13.90" length="5.08" shape="400.03,400.02 398.06,401.21 395.30,401.60"/>
    </edge>
    <edge id=":B1_19" function="internal">
        <lane id=":B1_19_0" index="0" speed="13.90" length="2.34" shape="400.00,396.90 399.20,396.50 398.40,395.30"/>
    </edge>
    <edge id=":B1_12" function="internal">
        <lane id=":B1_12_0" index="0" speed="13.90" length="5.00" shape="395.30,398.40 396.66,398.21 397.62,397.62 398.21,396.66 398.40,395.30"/>
    </edge>
    <edge id=":B1_13" function="internal">
        <lane id=":B1_13_0" index="0" speed="13.90" length="9.40" shape="395.30,398.40 404.70,398.40"/>
    </edge>
    <edge id=":B1_14" function="internal">
        <lane id=":B1_14_0" index="0" speed="13.90" length="10.16" shape="395.30,398.40 398.06,398.79 400.02,399.97 401.21,401.94 401.60,404.70"/>
    </edge>
    <edge id=":B1_15" function="internal">
        <lane id=":B1_15_0" index="0" speed="13.90" length="4.67" shape="395.30,398.40 396.50,399.20 396.90,400.00 396.50,400.80 395.30,401.60"/>
    </edge>
    <edge id=":B2_0" function="internal">
        <lane id=":B2_0_0" index="0" speed="13.90" length="5.00" shape="398.40,804.70 398.21,803.34 397.62,802.38 396.66,801.79 395.30,801.60"/>
    </edge>
    <edge id=":B2_1" function="internal">
        <lane id=":B2_1_0" index="0" speed="13.90" length="9.40" shape="398.40,804.70 398.40,795.30"/>
    </edge>
    <edge id=":B2_2" function="internal">
        <lane id=":B2_2_0" index="0" speed="13.90" length="5.08" shape="398.40,804.70 398.79,801.94 399.97,799.98"/>
    </edge>
    <edge id=":B2_3" function="internal">
        <lane id=":B2_3_0" index="0" speed="13.90" length="2.34" shape="398.40,804.70 399.20,803.50 400.00,803.10"/>
    </edge>
    <edge id=":B2_16" function="internal">
        <lane id=":B2_16_0" index="0" speed="13.90" length="5.08" shape="399.97,799.98 401.94,798.79 404.70,798.40"/>
    </edge>
    <edge id=":B2_17" function="internal">
        <lane id=":B2_17_0" index="0" speed="13.90" length="2.34" shape="400.00,803.10 400.80,803.50 401.60,804.70"/>
    </edge>
    <edge id=":B2_4" function="internal">
        <lane id=":B2_4_0" index="0" speed="13.90" length="5.00" shape="404.70,801.60 403.34,801.79 402.38,802.38 401.79,803.34 401.60,804.70"/>
    </edge>
    <edge id=":B2_5" function="internal">
        <lane id=":B2_5_0" index="0" speed="13.90" length="9.40" shape="404.70,801.60 395.30,801.60"/>
    </edge>
    <edge id=":B2_6" function="internal">
        <lane id=":B2_6_0" index="0" speed="13.90" length="10.16" shape="404.70,801.60 401.94,801.21 399.98,800.03 398.79,798.06 398.40,795.30"/>
    </edge>
    <edge id=":B2_7" function="internal">
        <lane id=":B2_7_0" index="0" speed="13.90" length="4.67" shape="404.70,801.60 403.50,800.80 403.10,800.00 403.50,799.20 404.70,798.40"/>
    </edge>
    <edge id=":B2_8" function="internal">
        <lane id=":B2_8_0" index="0" speed="13.90" length="5.00" shape="401.60,795.30 401.79,796.66 402.38,797.62 403.34,798.21 404.70,798.40"/>
    </edge>
    <edge id=":B2_9" function="internal">
        <lane id=":B2_9_0" index="0" speed="13.90" length="9.40" shape="401.60,795.30 401.60,804.70"/>
    </edge>
    <edge id=":B2_10" function="internal">
        <lane id=":B2_10_0" index="0" speed="13.90" length="5.08" shape="401.60,795.30 401.21,798.06 400.03,800.02"/>
    </edge>
    <edge id=":B2_11" function="internal">
        <lane id=":B2_11_0" index="0" speed="13.90" length="2.34" shape="401.60,795.30 400.80,796.50 400.00,796.90"/>
    </edge>
    <edge id=":B2_18" function="internal">
        <lane id=":B2_18_0" index="0" speed="13.90" length="5.08" shape="400.03,800.02 398.06,801.21 395.30,801.60"/>
    </edge>
    <edge id=":B2_19" function="internal">
        <lane id=":B2_19_0" index="0" speed="13.90" length="2.34" shape="400.00,796.90 399.20,796.50 398.40,795.30"/>
    </edge>
    <edge id=":B2_12" function="internal">
        <lane id=":B2_12_0" index="0" speed="13.90" length="5.00" shape="395.30,798.40 396.66,798.21 397.62,797.62 398.21,796.66 398.40,795.30"/>
    </edge>
    <edge id=":B2_13" function="internal">
        <lane id=":B2_13_0" index="0" speed="13.90" length="9.40" shape="395.30,798.40 404.70,798.40"/>
    </edge>
    <edge id=":B2_14" function="internal">
        <lane id=":B2_14_0" index="0" speed="13.90" length="10.16" shape="395.30,798.40 398.06,798.79 400.02,799.97 401.21,801.94 401.60,804.70"/>
    </edge>
    <edge id=":B2_15" function="internal">
        <lane id=":B2_15_0" index="0" speed="13.90" length="4.67" shape="395.30,798.40 396.50,799.20 396.90,800.00 396.50,800.80 395.30,801.60"/>
    </edge>
    <edge id=":B3_0" function="internal">
        <lane id=":B3_0_0" index="0" speed="13.90" length="5.00" shape="398.40,1204.70 398.21,1203.34 397.62,1202.38 396.66,1201.79 395.30,1201.60"/>
    </edge>
    <edge id=":B3_1" function="internal">
        <lane id=":B3_1_0" index="0" speed="13.90" length="9.40" shape="398.40,1204.70 398.40,1195.30"/>
    </edge>
    <edge id=":B3_2" function="internal">
        <lane id=":B3_2_0" index="0" speed="13.90" length="5.08" shape="398.40,1204.70 398.79,1201.94 399.97,1199.97"/>
    </edge>
    <edge id=":B3_3" function="internal">