<?xml version="1.0" encoding="UTF-8"?>

<!-- generated on 2024-04-01 17:38:29 by Eclipse SUMO netconvert Version v1_19_0+1605-f03351e016f
This data file and the accompanying materials
are made available under the terms of the Eclipse Public License v2.0
which accompanies this distribution, and is available at
http://www.eclipse.org/legal/epl-v20.html
This file may also be made available under the following Secondary
Licenses when the conditions for such availability set forth in the Eclipse
Public License 2.0 are satisfied: GNU General Public License, version 2
or later which is available at
https://www.gnu.org/licenses/old-licenses/gpl-2.0-standalone.html
SPDX-License-Identifier: EPL-2.0 OR GPL-2.0-or-later
<configuration xmlns:xsi="http://www.w3.org/2001/XMLSchema-instance" xsi:noNamespaceSchemaLocation="http://sumo.dlr.de/xsd/netconvertConfiguration.xsd">

    <input>
        <type-files value="/scr1/sumoD/data/typemap/osmNetconvert.typ.xml,/scr1/sumoD/data/typemap/osmNetconvertPedestrians.typ.xml,/scr1/sumoD/data/typemap/osmNetconvertBicycle.typ.xml"/>
        <osm-files value="osm.xml"/>
    </input>

    <output>
        <write-license value="true"/>
    </output>

    <projection>
        <proj.utm value="true"/>
    </projection>

    <processing>
        <geometry.remove value="true"/>
    </processing>

    <junctions>
        <no-internal-links value="true"/>
        <junctions.join value="true"/>
    </junctions>

    <report>
        <xml-validation value="never"/>
    </report>

</configuration>
-->

<net version="1.20" junctionCornerDetail="5" limitTurnSpeed="5.50" xmlns:xsi="http://www.w3.org/2001/XMLSchema-instance" xsi:noNamespaceSchemaLocation="http://sumo.dlr.de/xsd/net_file.xsd">

    <location netOffset="-400077.44,-5809858.01" convBoundary="0.00,0.00,730.84,585.04" origBoundary="13.530317,52.429788,13.540963,52.435154" projParameter="+proj=utm +zone=33 +ellps=WGS84 +datum=WGS84 +units=m +no_defs"/>

    <type id="cycleway.lane|highway.tertiary" priority="10" numLanes="1" speed="22.22" disallow="pedestrian tram rail_urban rail rail_electric rail_fast ship" oneway="0" sidewalkWidth="3.00" bikeLaneWidth="1.25"/>
    <type id="cycleway.track|highway.secondary" priority="11" numLanes="1" speed="27.78" disallow="pedestrian tram rail_urban rail rail_electric rail_fast ship" oneway="0" sidewalkWidth="3.00" bikeLaneWidth="1.50"/>
    <type id="cycleway.track|highway.tertiary" priority="10" numLanes="1" speed="22.22" disallow="pedestrian tram rail_urban rail rail_electric rail_fast ship" oneway="0" sidewalkWidth="3.00" bikeLaneWidth="1.50"/>
    <type id="highway.footway" priority="1" numLanes="1" speed="2.78" allow="pedestrian" oneway="1" width="2.00"/>
    <type id="highway.service" priority="1" numLanes="1" speed="5.56" allow="pedestrian delivery bicycle" oneway="0"/>
    <type id="highway.service|railway.tram" priority="17" numLanes="1" speed="13.89" allow="pedestrian delivery bicycle tram" oneway="0"/>
    <type id="highway.unclassified" priority="4" numLanes="1" speed="13.89" disallow="pedestrian tram rail_urban rail rail_electric rail_fast ship" oneway="0" sidewalkWidth="2.00"/>
    <type id="railway.tram" priority="17" numLanes="1" speed="13.89" allow="tram" oneway="1"/>

    <edge id="-137483074#0" from="2697454318" to="1652675097" priority="10" type="cycleway.lane|highway.tertiary">
        <lane id="-137483074#0_0" index="0" allow="bicycle" speed="13.89" length="6.29" width="1.25" shape="579.68,499.30 579.81,499.16"/>
        <lane id="-137483074#0_1" index="1" disallow="pedestrian bicycle tram rail_urban rail rail_electric rail_fast ship" speed="13.89" length="6.29" shape="581.31,500.82 581.44,500.67"/>
    </edge>
    <edge id="-137483074#1" from="2697454319" to="2697454318" priority="10" type="cycleway.lane|highway.tertiary">
        <lane id="-137483074#1_0" index="0" allow="bicycle" speed="13.89" length="3.15" width="1.25" shape="577.18,502.00 577.32,501.85"/>
        <lane id="-137483074#1_1" index="1" disallow="pedestrian bicycle tram rail_urban rail rail_electric rail_fast ship" speed="13.89" length="3.15" shape="578.82,503.51 578.95,503.36"/>
    </edge>
    <edge id="-137483074#2" from="1652675099" to="2697454319" priority="10" type="cycleway.lane|highway.tertiary">
        <lane id="-137483074#2_0" index="0" allow="bicycle" speed="13.89" length="9.40" width="1.25" shape="574.04,505.39 574.18,505.24"/>
        <lane id="-137483074#2_1" index="1" disallow="pedestrian bicycle tram rail_urban rail rail_electric rail_fast ship" speed="13.89" length="9.40" shape="575.68,506.90 575.81,506.76"/>
    </edge>
    <edge id="-142575672#0" from="3246050929" to="1652675097" priority="4" type="highway.unclassified">
        <lane id="-142575672#0_0" index="0" allow="pedestrian" speed="13.89" length="10.81" width="2.00" shape="597.72,495.83 597.59,495.98"/>
        <lane id="-142575672#0_1" index="1" disallow="pedestrian tram rail_urban rail rail_electric rail_fast ship" speed="13.89" length="10.81" shape="595.76,494.13 595.63,494.28"/>
        <lane id="-142575672#0_2" index="2" disallow="pedestrian tram rail_urban rail rail_electric rail_fast ship" speed="13.89" length="10.81" shape="593.34,492.03 593.21,492.18" changeLeft="authority"/>
    </edge>
    <edge id="-142575672#1" from="cluster_3366620136_5836660314" to="3246050929" priority="4" type="highway.unclassified" shape="594.71,488.01 591.97,491.17">
        <lane id="-142575672#1_0" index="0" allow="pedestrian" speed="13.89" length="5.26" width="2.00" shape="600.30,492.86 597.66,495.90"/>
        <lane id="-142575672#1_1" index="1" disallow="pedestrian tram rail_urban rail rail_electric rail_fast ship" speed="13.89" length="5.26" shape="598.34,491.15 595.70,494.20"/>
        <lane id="-142575672#1_2" index="2" disallow="pedestrian tram rail_urban rail rail_electric rail_fast ship" speed="13.89" length="5.26" shape="595.92,489.06 593.28,492.10" changeLeft="authority"/>
    </edge>
    <edge id="-142575672#3" from="7170324899" to="cluster_3366620136_5836660314" priority="4" type="highway.unclassified" shape="605.59,475.46 596.12,486.38">
        <lane id="-142575672#3_0" index="0" allow="pedestrian" speed="13.89" length="15.53" width="2.00" shape="609.72,481.99 607.40,484.67"/>
        <lane id="-142575672#3_1" index="1" disallow="pedestrian tram rail_urban rail rail_electric rail_fast ship" speed="13.89" length="15.53" shape="607.76,480.29 605.43,482.97"/>
        <lane id="-142575672#3_2" index="2" disallow="pedestrian tram rail_urban rail rail_electric rail_fast ship" speed="13.89" length="15.53" shape="605.34,478.19 603.01,480.87" changeLeft="authority"/>
    </edge>
    <edge id="-142575672#4" from="1652675093" to="7170324899" priority="4" type="highway.unclassified">
        <lane id="-142575672#4_0" index="0" allow="pedestrian" speed="13.89" length="12.00" width="2.00" shape="614.56,476.41 613.00,478.21"/>
        <lane id="-142575672#4_1" index="1" disallow="pedestrian tram rail_urban rail rail_electric rail_fast ship" speed="13.89" length="12.00" shape="612.59,474.71 611.03,476.51"/>
        <lane id="-142575672#4_2" index="2" disallow="pedestrian tram rail_urban rail rail_electric rail_fast ship" speed="13.89" length="12.00" shape="610.17,472.61 608.61,474.41" changeLeft="authority"/>
    </edge>
    <edge id="-142575695" from="6275106349" to="1652675093" priority="4" type="highway.unclassified" shape="521.44,375.34 528.29,382.07 546.65,400.12 586.96,440.00 606.31,459.27 613.45,466.39">
        <lane id="-142575695_0" index="0" allow="pedestrian" speed="13.89" length="129.44" width="2.00" shape="524.39,372.35 531.23,379.07 549.59,397.13 589.91,437.02 609.27,456.29 611.19,458.20"/>
        <lane id="-142575695_1" index="1" disallow="pedestrian tram rail_urban rail rail_electric rail_fast ship" speed="13.89" length="129.44" shape="522.57,374.20 529.41,380.93 547.77,398.98 588.08,438.86 607.44,458.13 609.35,460.04"/>
    </edge>
    <edge id="-318210373" from="1652675075" to="1652675093" priority="4" type="highway.unclassified" shape="730.84,340.22 678.42,396.54 652.51,424.38 649.18,427.96 645.83,431.56 629.46,449.18 613.45,466.39">
        <lane id="-318210373_0" index="0" allow="pedestrian" speed="13.89" length="172.33" width="2.00" shape="733.91,343.08 681.49,399.40 655.59,427.24 652.25,430.82 648.91,434.42 632.53,452.04 621.55,463.84"/>
        <lane id="-318210373_1" index="1" disallow="pedestrian tram rail_urban rail rail_electric rail_fast ship" speed="13.89" length="172.33" shape="732.01,341.31 679.59,397.63 653.68,425.47 650.35,429.05 647.00,432.65 630.63,450.26 619.65,462.07"/>
    </edge>
    <edge id="-318210394" from="837697455" to="3246050935" priority="10" type="cycleway.track|highway.tertiary" shape="508.64,581.89 513.25,576.70 517.96,571.67 534.26,554.21">
        <lane id="-318210394_0" index="0" allow="pedestrian" speed="13.89" length="37.72" width="3.00" shape="503.97,577.74 508.63,572.49 513.39,567.40 526.96,552.87"/>
        <lane id="-318210394_1" index="1" allow="bicycle" speed="13.89" length="37.72" width="1.50" shape="505.65,579.23 510.29,574.01 515.03,568.93 528.61,554.41"/>
        <lane id="-318210394_2" index="2" disallow="pedestrian bicycle tram rail_urban rail rail_electric rail_fast ship" speed="13.89" length="37.72" width="3.25" shape="507.43,580.81 512.05,575.61 516.77,570.56 530.34,556.03"/>
    </edge>
    <edge id="-52080655#0" from="3246050931" to="1652675099" priority="10" type="cycleway.lane|highway.tertiary">
        <lane id="-52080655#0_0" index="0" allow="pedestrian" speed="13.89" length="11.86" width="3.00" shape="559.26,516.61 560.58,515.17"/>
        <lane id="-52080655#0_1" index="1" allow="bicycle" speed="13.89" length="11.86" width="1.25" shape="560.83,518.05 562.15,516.61"/>
        <lane id="-52080655#0_2" index="2" disallow="pedestrian bicycle tram rail_urban rail rail_electric rail_fast ship" speed="13.89" length="11.86" width="2.17" shape="562.09,519.20 563.40,517.77"/>
        <lane id="-52080655#0_3" index="3" disallow="pedestrian bicycle tram rail_urban rail rail_electric rail_fast ship" speed="13.89" length="11.86" width="2.17" shape="563.68,520.67 565.00,519.24" changeLeft="authority"/>
    </edge>
    <edge id="-52080655#1" from="3366620142" to="3246050931" priority="10" type="cycleway.lane|highway.tertiary">
        <lane id="-52080655#1_0" index="0" allow="pedestrian" speed="13.89" length="3.83" width="3.00" shape="556.68,519.41 559.07,516.82"/>
        <lane id="-52080655#1_1" index="1" allow="bicycle" speed="13.89" length="3.83" width="1.25" shape="558.24,520.85 560.63,518.26"/>
        <lane id="-52080655#1_2" index="2" disallow="pedestrian bicycle tram rail_urban rail rail_electric rail_fast ship" speed="13.89" length="3.83" width="2.17" shape="559.49,522.01 561.88,519.42"/>
        <lane id="-52080655#1_3" index="3" disallow="pedestrian bicycle tram rail_urban rail rail_electric rail_fast ship" speed="13.89" length="3.83" width="2.17" shape="561.08,523.48 563.48,520.89" changeLeft="authority"/>
    </edge>
    <edge id="-52080655#2" from="3246050935" to="3366620142" priority="10" type="cycleway.lane|highway.tertiary">
        <lane id="-52080655#2_0" index="0" allow="pedestrian" speed="13.89" length="40.62" width="3.00" shape="531.76,546.47 556.47,519.64"/>
        <lane id="-52080655#2_1" index="1" allow="bicycle" speed="13.89" length="40.62" width="1.25" shape="533.32,547.91 558.03,521.08"/>
        <lane id="-52080655#2_2" index="2" disallow="pedestrian bicycle tram rail_urban rail rail_electric rail_fast ship" speed="13.89" length="40.62" width="2.17" shape="534.58,549.07 559.29,522.23"/>
        <lane id="-52080655#2_3" index="3" disallow="pedestrian bicycle tram rail_urban rail rail_electric rail_fast ship" speed="13.89" length="40.62" width="2.17" shape="536.18,550.54 560.88,523.70" changeLeft="authority"/>
    </edge>
    <edge id="137483074#0" from="1652675097" to="2697454318" priority="10" type="cycleway.lane|highway.tertiary">
        <lane id="137483074#0_0" index="0" allow="bicycle" speed="13.89" length="6.29" width="1.25" shape="585.42,504.36 585.29,504.51"/>
        <lane id="137483074#0_1" index="1" disallow="pedestrian bicycle tram rail_urban rail rail_electric rail_fast ship" speed="13.89" length="6.29" shape="583.79,502.85 583.65,502.99"/>
    </edge>
    <edge id="137483074#1" from="2697454318" to="2697454319" priority="10" type="cycleway.lane|highway.tertiary">
        <lane id="137483074#1_0" index="0" allow="bicycle" speed="13.89" length="3.15" width="1.25" shape="582.94,507.04 582.80,507.19"/>
        <lane id="137483074#1_1" index="1" disallow="pedestrian bicycle tram rail_urban rail rail_electric rail_fast ship" speed="13.89" length="3.15" shape="581.30,505.53 581.17,505.68"/>
    </edge>
    <edge id="137483074#2" from="2697454319" to="1652675099" priority="10" type="cycleway.lane|highway.tertiary">
        <lane id="137483074#2_0" index="0" allow="bicycle" speed="13.89" length="9.40" width="1.25" shape="579.79,510.44 579.65,510.59"/>
        <lane id="137483074#2_1" index="1" disallow="pedestrian bicycle tram rail_urban rail rail_electric rail_fast ship" speed="13.89" length="9.40" shape="578.16,508.93 578.02,509.08"/>
    </edge>
    <edge id="140295392" from="1652675097" to="1704693785" priority="1" type="highway.service" spreadType="center" shape="585.21,498.96 588.76,508.45 595.13,512.43">
        <lane id="140295392_0" index="0" allow="bus delivery bicycle" speed="5.56" length="17.07" shape="587.20,504.27 587.27,504.46"/>
    </edge>
    <edge id="142575672#0" from="1652675097" to="3246050929" priority="4" type="highway.unclassified">
        <lane id="142575672#0_0" index="0" allow="pedestrian" speed="13.89" length="10.81" width="2.00" shape="588.83,488.38 588.96,488.23"/>
        <lane id="142575672#0_1" index="1" disallow="pedestrian tram rail_urban rail rail_electric rail_fast ship" speed="13.89" length="10.81" shape="590.79,490.08 590.92,489.93" changeLeft="authority"/>
    </edge>
    <edge id="142575672#1" from="3246050929" to="cluster_3366620136_5836660314" priority="4" type="highway.unclassified" shape="591.97,491.17 594.71,488.01">
        <lane id="142575672#1_0" index="0" allow="pedestrian" speed="13.89" length="5.26" width="2.00" shape="588.89,488.31 591.53,485.26"/>
        <lane id="142575672#1_1" index="1" disallow="pedestrian tram rail_urban rail rail_electric rail_fast ship" speed="13.89" length="5.26" shape="590.86,490.01 593.50,486.96" changeLeft="authority"/>
    </edge>
    <edge id="142575672#3" from="cluster_3366620136_5836660314" to="7170324899" priority="4" type="highway.unclassified" shape="596.12,486.38 605.59,475.46">
        <lane id="142575672#3_0" index="0" allow="pedestrian" speed="13.89" length="15.53" width="2.00" shape="598.63,477.07 600.95,474.39"/>
        <lane id="142575672#3_1" index="1" disallow="pedestrian tram rail_urban rail rail_electric rail_fast ship" speed="13.89" length="15.53" shape="600.59,478.78 602.92,476.10" changeLeft="authority"/>
    </edge>
    <edge id="142575672#4" from="7170324899" to="1652675093" priority="4" type="highway.unclassified">
        <lane id="142575672#4_0" index="0" allow="pedestrian" speed="13.89" length="12.00" width="2.00" shape="604.23,470.61 605.79,468.81"/>
        <lane id="142575672#4_1" index="1" disallow="pedestrian tram rail_urban rail rail_electric rail_fast ship" speed="13.89" length="12.00" shape="606.20,472.32 607.75,470.52" changeLeft="authority"/>
    </edge>
    <edge id="142575695" from="1652675093" to="6275106349" priority="4" type="highway.unclassified" shape="613.45,466.39 606.31,459.27 586.96,440.00 546.65,400.12 528.29,382.07 521.44,375.34">
        <lane id="142575695_0" index="0" allow="pedestrian" speed="13.89" length="129.44" width="2.00" shape="605.25,464.15 603.34,462.24 584.00,442.98 543.69,403.11 525.34,385.06 518.50,378.34"/>
        <lane id="142575695_1" index="1" disallow="pedestrian tram rail_urban rail rail_electric rail_fast ship" speed="13.89" length="129.44" shape="607.09,462.31 605.18,460.40 585.83,441.13 545.52,401.26 527.16,383.21 520.32,376.48"/>
    </edge>
    <edge id="143308549#0" from="36268429" to="493585805" priority="11" type="cycleway.track|highway.secondary" spreadType="center" shape="424.03,335.91 431.65,343.37">
        <lane id="143308549#0_0" index="0" allow="pedestrian" speed="13.89" length="15.03" width="3.00" shape="426.79,333.09 434.32,340.45"/>
        <lane id="143308549#0_1" index="1" allow="bicycle" speed="13.89" length="15.03" width="1.50" shape="425.22,334.70 432.74,342.06"/>
        <lane id="143308549#0_2" index="2" disallow="pedestrian bicycle tram rail_urban rail rail_electric rail_fast ship" speed="13.89" length="15.03" shape="423.57,336.38 431.10,343.74"/>
        <lane id="143308549#0_3" index="3" disallow="pedestrian bicycle tram rail_urban rail rail_electric rail_fast ship" speed="13.89" length="15.03" shape="421.34,338.67 428.86,346.03"/>
    </edge>
    <edge id="143308549#1" from="493585805" to="4854982234" priority="11" type="cycleway.track|highway.secondary" spreadType="center" shape="431.67,343.39 465.72,377.45 489.44,401.11 557.75,469.24">
        <lane id="143308549#1_0" index="0" allow="pedestrian" speed="13.89" length="181.13" width="3.00" shape="434.56,340.69 468.51,374.65 492.23,398.31 558.79,464.69"/>
        <lane id="143308549#1_1" index="1" allow="bicycle" speed="13.89" length="181.13" width="1.50" shape="432.97,342.28 466.92,376.24 490.64,399.91 557.20,466.28"/>
        <lane id="143308549#1_2" index="2" disallow="pedestrian bicycle tram rail_urban rail rail_electric rail_fast ship" speed="13.89" length="181.13" shape="431.31,343.94 465.26,377.91 488.98,401.57 555.54,467.95"/>
        <lane id="143308549#1_3" index="3" disallow="pedestrian bicycle tram rail_urban rail rail_electric rail_fast ship" speed="13.89" length="181.13" shape="429.04,346.21 463.00,380.17 486.72,403.84 553.28,470.21"/>
    </edge>
    <edge id="143308549#2" from="4854982234" to="3366620135" priority="11" type="cycleway.track|highway.secondary" spreadType="center" shape="557.75,469.24 573.70,485.21">
        <lane id="143308549#2_0" index="0" allow="pedestrian" speed="13.89" length="25.32" width="3.00" shape="562.32,468.22 576.22,482.14"/>
        <lane id="143308549#2_1" index="1" allow="bicycle" speed="13.89" length="25.32" width="1.50" shape="560.73,469.81 574.62,483.73"/>
        <lane id="143308549#2_2" index="2" disallow="pedestrian bicycle tram rail_urban rail rail_electric rail_fast ship" speed="13.89" length="25.32" shape="559.07,471.47 572.96,485.39"/>
        <lane id="143308549#2_3" index="3" disallow="pedestrian bicycle tram rail_urban rail rail_electric rail_fast ship" speed="13.89" length="25.32" shape="556.80,473.73 570.70,487.65"/>
    </edge>
    <edge id="143308549#3" from="3366620135" to="3246050928" priority="11" type="cycleway.track|highway.secondary" spreadType="center" shape="573.62,485.13 576.73,487.95">
        <lane id="143308549#3_0" index="0" allow="pedestrian" speed="13.89" length="6.92" width="3.00" shape="576.56,482.47 577.44,483.26"/>
        <lane id="143308549#3_1" index="1" allow="bicycle" speed="13.89" length="6.92" width="1.50" shape="575.05,484.13 575.93,484.93"/>
        <lane id="143308549#3_2" index="2" disallow="pedestrian bicycle tram rail_urban rail rail_electric rail_fast ship" speed="13.89" length="6.92" shape="573.47,485.88 574.35,486.67"/>
        <lane id="143308549#3_3" index="3" disallow="pedestrian bicycle tram rail_urban rail rail_electric rail_fast ship" speed="13.89" length="6.92" shape="571.32,488.25 572.20,489.04"/>
    </edge>
    <edge id="143308549#4" from="3246050928" to="1652675097" priority="11" type="cycleway.track|highway.secondary" spreadType="center" shape="576.75,487.97 586.75,497.32">
        <lane id="143308549#4_0" index="0" allow="pedestrian" speed="13.89" length="14.92" width="3.00" shape="581.23,486.75 584.34,489.66"/>
        <lane id="143308549#4_1" index="1" allow="bicycle" speed="13.89" length="14.92" width="1.50" shape="579.69,488.39 582.80,491.30"/>
        <lane id="143308549#4_2" index="2" disallow="pedestrian bicycle tram rail_urban rail rail_electric rail_fast ship" speed="13.89" length="14.92" shape="578.09,490.11 581.20,493.02"/>
        <lane id="143308549#4_3" index="3" disallow="pedestrian bicycle tram rail_urban rail rail_electric rail_fast ship" speed="13.89" length="14.92" shape="575.90,492.45 579.01,495.36"/>
    </edge>
    <edge id="158236381" from="1704693785" to="1704693804" priority="17" type="highway.service|railway.tram" spreadType="center" shape="595.66,511.58 648.00,543.58">
        <lane id="158236381_0" index="0" allow="pedestrian" speed="13.89" length="62.52" width="2.00" shape="598.90,511.69 648.84,542.22"/>
        <lane id="158236381_1" index="1" allow="bus delivery bicycle tram" speed="13.89" length="62.52" shape="597.54,513.91 647.48,544.43"/>
    </edge>
    <edge id="206889079#0" from="1704693810" to="2169462564" priority="17" type="railway.tram" spreadType="center">
        <lane id="206889079#0_0" index="0" speed="13.89" length="61.95" shape="645.30,547.24 592.71,514.73"/>
    </edge>
    <edge id="206889079#1" from="2169462564" to="2697454319" priority="17" type="railway.tram" spreadType="center" shape="592.60,514.67 583.15,508.43 578.80,505.89">
        <lane id="206889079#1_0" index="0" speed="13.89" length="16.36" shape="592.50,514.60 584.30,509.18"/>
    </edge>
    <edge id="206889079#2" from="2697454319" to="1906399893" priority="17" type="railway.tram" spreadType="center">
        <lane id="206889079#2_0" index="0" speed="13.89" length="13.09" shape="574.02,502.11 568.54,497.76"/>
    </edge>
    <edge id="206889079#3" from="1906399893" to="1704693568" priority="17" type="railway.tram" spreadType="center" shape="568.54,497.76 564.44,494.86 555.51,487.78 542.92,476.12 421.16,353.75 413.61,346.31 405.35,338.18 345.58,279.52 338.46,272.09 329.72,263.70 297.24,230.29 291.68,224.72 250.14,183.02 235.06,167.86 218.41,151.25 199.61,134.16 184.63,123.00 172.43,115.95 162.78,110.37 151.42,103.35 129.90,90.03 82.93,62.34 55.28,44.87 32.42,27.90 29.94,25.88 18.57,17.07 0.00,2.89">
        <lane id="206889079#3_0" index="0" speed="13.89" length="757.41" shape="568.54,497.76 564.44,494.86 555.51,487.78 542.92,476.12 421.16,353.75 413.61,346.31 405.35,338.18 345.58,279.52 338.46,272.09 329.72,263.70 297.24,230.29 291.68,224.72 250.14,183.02 235.06,167.86 218.41,151.25 199.61,134.16 184.63,123.00 172.43,115.95 162.78,110.37 151.42,103.35 129.90,90.03 82.93,62.34 55.28,44.87 32.42,27.90 29.94,25.88 18.57,17.07 0.00,2.89"/>
    </edge>
    <edge id="220198808#0" from="1704693564" to="1906399902" priority="17" type="railway.tram" spreadType="center" shape="2.11,0.00 19.72,13.04 24.38,16.94 32.07,23.36 35.45,26.24 57.11,42.19 84.54,60.66 151.18,99.52 152.93,100.47 165.51,107.30 174.86,113.45 180.20,116.96 191.82,124.42 200.50,130.83 213.50,142.08 224.67,152.88 251.41,179.75 294.07,222.49 327.15,255.65 332.23,261.05 341.02,269.37 348.51,276.77 408.15,335.65 416.27,343.68 423.82,351.14 544.89,473.83 556.59,484.70 566.29,492.31 570.24,495.50">
        <lane id="220198808#0_0" index="0" speed="13.89" length="757.54" shape="2.11,-0.00 19.72,13.04 24.38,16.94 32.07,23.36 35.45,26.24 57.11,42.19 84.54,60.66 151.18,99.52 152.93,100.47 165.51,107.30 174.86,113.45 180.20,116.96 191.82,124.42 200.50,130.83 213.50,142.08 224.67,152.88 251.41,179.75 294.07,222.49 327.15,255.65 332.23,261.05 341.02,269.37 348.51,276.77 408.15,335.65 416.27,343.68 423.82,351.14 544.89,473.83 556.59,484.70 566.29,492.31 570.15,495.42"/>
    </edge>
    <edge id="220198808#7" from="1906399902" to="2697454318" priority="17" type="railway.tram" spreadType="center">
        <lane id="220198808#7_0" index="0" speed="13.89" length="13.40" shape="570.34,495.58 576.04,499.88"/>
    </edge>
    <edge id="220198808#8" from="2697454318" to="1704693785" priority="17" type="railway.tram" spreadType="center">
        <lane id="220198808#8_0" index="0" speed="13.89" length="16.74" shape="584.82,506.00 584.99,506.11"/>
    </edge>
    <edge id="318210373" from="1652675093" to="1652675075" priority="4" type="highway.unclassified" shape="613.45,466.39 629.46,449.18 645.83,431.56 649.18,427.96 652.51,424.38 678.42,396.54 730.84,340.22">
        <lane id="318210373_0" index="0" allow="pedestrian" speed="13.89" length="172.33" width="2.00" shape="615.40,458.12 626.38,446.32 642.75,428.71 646.10,425.10 649.44,421.51 675.35,393.67 727.76,337.36"/>
        <lane id="318210373_1" index="1" disallow="pedestrian tram rail_urban rail rail_electric rail_fast ship" speed="13.89" length="172.33" shape="617.31,459.89 628.29,448.09 644.66,430.48 648.01,426.87 651.34,423.29 677.25,395.45 729.67,339.13"/>
    </edge>
    <edge id="318210389#0" from="3246050934" to="3366620144" priority="11" type="cycleway.track|highway.secondary" spreadType="center" shape="627.08,548.37 608.51,537.23 589.51,525.74">
        <lane id="318210389#0_0" index="0" allow="pedestrian" speed="13.89" length="46.55" width="3.00" shape="620.81,551.08 605.65,541.99 586.77,530.57"/>
        <lane id="318210389#0_1" index="1" allow="bicycle" speed="13.89" length="46.55" width="1.50" shape="621.97,549.15 606.81,540.06 587.93,528.65"/>
        <lane id="318210389#0_2" index="2" disallow="pedestrian bicycle tram rail_urban rail rail_electric rail_fast ship" speed="13.89" length="46.55" shape="623.17,547.13 608.02,538.05 589.15,526.64"/>
        <lane id="318210389#0_3" index="3" disallow="pedestrian bicycle tram rail_urban rail rail_electric rail_fast ship" speed="13.89" length="46.55" shape="624.82,544.39 609.67,535.31 590.80,523.90" changeLeft="authority"/>
        <lane id="318210389#0_4" index="4" disallow="pedestrian bicycle tram rail_urban rail rail_electric rail_fast ship" speed="13.89" length="46.55" shape="626.47,541.65 611.32,532.57 592.46,521.16" changeRight="authority"/>
    </edge>
    <edge id="318210389#1" from="3366620144" to="3246050932" priority="11" type="cycleway.track|highway.secondary" spreadType="center" shape="589.51,525.75 586.12,523.70">
        <lane id="318210389#1_0" index="0" allow="pedestrian" speed="13.89" length="6.77" width="3.00" shape="586.52,530.42 586.05,530.14"/>
        <lane id="318210389#1_1" index="1" allow="bicycle" speed="13.89" length="6.77" width="1.50" shape="587.68,528.49 587.22,528.22"/>
        <lane id="318210389#1_2" index="2" disallow="pedestrian bicycle tram rail_urban rail rail_electric rail_fast ship" speed="13.89" length="6.77" shape="588.89,526.48 588.43,526.20"/>
        <lane id="318210389#1_3" index="3" disallow="pedestrian bicycle tram rail_urban rail rail_electric rail_fast ship" speed="13.89" length="6.77" shape="590.54,523.74 590.08,523.46" changeLeft="authority"/>
        <lane id="318210389#1_4" index="4" disallow="pedestrian bicycle tram rail_urban rail rail_electric rail_fast ship" speed="13.89" length="6.77" shape="592.19,521.00 591.73,520.72" changeRight="authority"/>
    </edge>
    <edge id="318210389#2" from="3246050932" to="1652675099" priority="11" type="cycleway.track|highway.secondary" spreadType="center" shape="586.11,523.70 571.24,514.71">
        <lane id="318210389#2_0" index="0" allow="pedestrian" speed="13.89" length="18.83" width="3.00" shape="581.74,527.54 574.39,523.10"/>
        <lane id="318210389#2_1" index="1" allow="bicycle" speed="13.89" length="18.83" width="1.50" shape="582.90,525.61 575.56,521.17"/>
        <lane id="318210389#2_2" index="2" disallow="pedestrian bicycle tram rail_urban rail rail_electric rail_fast ship" speed="13.89" length="18.83" shape="584.12,523.60 576.77,519.16"/>
        <lane id="318210389#2_3" index="3" disallow="pedestrian bicycle tram rail_urban rail rail_electric rail_fast ship" speed="13.89" length="18.83" shape="585.77,520.86 578.43,516.42" changeLeft="authority"/>
        <lane id="318210389#2_4" index="4" disallow="pedestrian bicycle tram rail_urban rail rail_electric rail_fast ship" speed="13.89" length="18.83" shape="587.43,518.12 580.08,513.68" changeRight="authority"/>
    </edge>
    <edge id="318210394" from="3246050935" to="837697455" priority="10" type="cycleway.track|highway.tertiary" shape="534.26,554.21 517.96,571.67 513.25,576.70 508.64,581.89">
        <lane id="318210394_0" index="0" allow="pedestrian" speed="13.89" length="37.72" width="3.00" shape="536.10,561.40 522.52,575.93 517.87,580.91 513.32,586.04"/>
        <lane id="318210394_1" index="1" allow="bicycle" speed="13.89" length="37.72" width="1.50" shape="534.45,559.87 520.88,574.40 516.21,579.40 511.63,584.55"/>
        <lane id="318210394_2" index="2" disallow="pedestrian bicycle tram rail_urban rail rail_electric rail_fast ship" speed="13.89" length="37.72" width="3.25" shape="532.72,558.25 519.14,572.78 514.45,577.80 509.86,582.97"/>
    </edge>
    <edge id="329733348" from="583899005" to="3246050928" priority="1" type="highway.footway" spreadType="center">
        <lane id="329733348_0" index="0" speed="2.78" length="20.18" width="2.00" shape="564.37,500.75 571.91,493.01"/>
    </edge>
    <edge id="451445162#0" from="3246050932" to="1704693785" priority="1" type="highway.footway" spreadType="center">
        <lane id="451445162#0_0" index="0" speed="2.78" length="12.20" width="2.00" shape="591.47,516.79 593.04,514.93"/>
    </edge>
    <edge id="451445162#1" from="1704693785" to="3246050930" priority="1" type="highway.footway" spreadType="center">
        <lane id="451445162#1_0" index="0" speed="2.78" length="6.42" width="2.00" shape="597.10,509.78 597.22,509.61"/>
    </edge>
    <edge id="493598966" from="4854982234" to="4854982235" priority="1" type="highway.footway" spreadType="center">
        <lane id="493598966_0" index="0" speed="2.78" length="13.56" width="2.00" shape="562.68,464.33 565.77,461.26"/>
    </edge>