<?xml version="1.0" encoding="UTF-8"?>

<!-- generated on 16.08.2019 11:10:49 by Eclipse SUMO netedit Version v1_2_0+1619-6885be3785
<configuration xmlns:xsi="http://www.w3.org/2001/XMLSchema-instance" xsi:noNamespaceSchemaLocation="http://sumo.dlr.de/xsd/netconvertConfiguration.xsd">

    <input>
        <sumo-net-file value="D:\sumo\tests\netedit\demandElements\input_net.net.xml"/>
    </input>

    <output>
        <output-file value="D:\sumo\tests\netedit\demandElements\input_net.net.xml"/>
    </output>

    <processing>
        <geometry.max-grade.fix value="false"/>
        <offset.disable-normalization value="true"/>
        <opposites.guess.fix-lengths value="true"/>
        <lefthand value="false"/>
    </processing>

    <junctions>
        <no-turnarounds value="true"/>
        <junctions.corner-detail value="5"/>
        <junctions.limit-turn-speed value="5.5"/>
        <rectangular-lane-cut value="false"/>
    </junctions>

    <pedestrian>
        <walkingareas value="false"/>
    </pedestrian>

    <netedit>
        <route-files value="D:\sumo\tests\netedit\demandElements\trip\volatileRecomputing\input_routes.rou.xml"/>
    </netedit>

</configuration>
-->

<routes xmlns:xsi="http://www.w3.org/2001/XMLSchema-instance" xsi:noNamespaceSchemaLocation="http://sumo.dlr.de/xsd/routes_file.xsd">
    <trip id="trip_0" depart="0.00" from="gneE2" to="gneE5" via="gneE4"/>
    <trip id="trip_1" depart="1.00" from="gneE4" to="gneE5"/>
    <trip id="trip_2" depart="2.00" from="gneE8" to="gneE9"/>
    <trip id="trip_3" depart="3.00" from="gneE6" to="gneE7" via="gneE3"/>
</routes>
