<?xml version="1.0" encoding="UTF-8"?>

<!-- generated on 03.08.2018 16:02:15 by Eclipse SUMO netedit Version 7115a4b324
<configuration xmlns:xsi="http://www.w3.org/2001/XMLSchema-instance" xsi:noNamespaceSchemaLocation="http://sumo.dlr.de/xsd/netconvertConfiguration.xsd">

    <input>
        <sumo-additionals-file value="C:/Users/SUMO-Test/.texttest/tmp/netedit.gui.03Aug155723.2792/netedit.gui/additionalElements/detexit/load\input_additionals.add.xml"/>
        <sumo-net-file value="C:/Users/SUMO-Test/.texttest/tmp/netedit.gui.03Aug155723.2792/netedit.gui/additionalElements/detexit/load\input_net.net.xml"/>
    </input>

    <output>
        <additionals-output value="C:/Users/SUMO-Test/.texttest/tmp/netedit.gui.03Aug155723.2792/netedit.gui/additionalElements/detexit/load\additionals.xml"/>
        <shapes-output value="C:/Users/SUMO-Test/.texttest/tmp/netedit.gui.03Aug155723.2792/netedit.gui/additionalElements/detexit/load\shapes.xml"/>
        <output-file value="C:/Users/SUMO-Test/.texttest/tmp/netedit.gui.03Aug155723.2792/netedit.gui/additionalElements/detexit/load\net.net.xml"/>
    </output>

    <processing>
        <no-turnarounds value="true"/>
        <offset.disable-normalization value="true"/>
        <lefthand value="false"/>
        <junctions.corner-detail value="5"/>
        <rectangular-lane-cut value="false"/>
        <walkingareas value="false"/>
    </processing>

    <visualisation>
        <gui-settings-file value="C:/Users/SUMO-Test/.texttest/tmp/netedit.gui.03Aug155723.2792/netedit.gui/additionalElements/detexit/load\gui-settings.xml"/>
        <window-size value="700,500"/>
        <window-pos value="50,50"/>
        <gui-testing value="true"/>
        <gui-testing-debug value="true"/>
    </visualisation>

    <report>
        <no-warnings value="true"/>
        <error-log value="C:/Users/SUMO-Test/.texttest/tmp/netedit.gui.03Aug155723.2792/netedit.gui/additionalElements/detexit/load\log.txt"/>
    </report>

</configuration>
-->

<additional xmlns:xsi="http://www.w3.org/2001/XMLSchema-instance" xsi:noNamespaceSchemaLocation="http://sumo.dlr.de/xsd/additional_file.xsd">
    <e3Detector id="e3Detector_0" pos="22.97,6.36" freq="100.00" file="e3Detector_0.txt">
        <detEntry lane="gneE1_0" pos="50.00" friendlyPos="1"/>
        <detExit lane="gneE1_0" pos="15.00"/>
        <detExit lane="gneE1_0" pos="20.00"/>
        <detExit lane="gneE1_0" pos="25.00"/>
        <detExit lane="gneE1_0" pos="30.00"/>
        <detExit lane="gneE1_0" pos="50.00" friendlyPos="1"/>
        <detExit lane="gneE1_0" pos="0.00" friendlyPos="1"/>
        <detExit lane="gneE1_0" pos="50.00" friendlyPos="1"/>
    </e3Detector>
</additional>
