<?xml version="1.0"?>

<!-- generated on 08/11/08 12:12:05 by SUMO netgen Version dev-SVN-r5964
<configuration>

   <spider_network>
      <spider-net>true</spider-net>
      <spider-circle-number>1</spider-circle-number>
      <spider-omit-center>true</spider-omit-center>
   </spider_network>

   <output>
      <output-file>net.net.xml</output-file>
   </output>

</configuration>
-->

<net>

   <net-offset>97.09,99.27</net-offset>
   <conv-boundary>0.00,0.00,197.09,198.54</conv-boundary>
   <orig-boundary>-97.09,-99.27,100.00,99.27</orig-boundary>
   <orig-proj>!</orig-proj>

   <node_count>13</node_count>


   <edge id="1/1to13/1" from="1/1" to="13/1" priority="-1" type="netgen-default" function="normal">
      <lanes>
         <lane id="1/1to13/1_0" depart="1" vclasses="" maxspeed="13.90" length="46.26">195.30,98.89 184.23,53.97</lane>
      </lanes>
   </edge>

   <edge id="1/1to2/1" from="1/1" to="2/1" priority="-1" type="netgen-default" function="normal">
      <lanes>
         <lane id="1/1to2/1_0" depart="1" vclasses="" maxspeed="13.90" length="46.26">198.50,100.44 187.43,145.36</lane>
      </lanes>
   </edge>

   <edge id="10/1to11/1" from="10/1" to="11/1" priority="-1" type="netgen-default" function="normal">
      <lanes>
         <lane id="10/1to11/1_0" depart="1" vclasses="" maxspeed="13.90" length="46.26">62.23,4.03 108.15,-1.54</lane>
      </lanes>
   </edge>

   <edge id="10/1to9/1" from="10/1" to="9/1" priority="-1" type="netgen-default" function="normal">
      <lanes>
         <lane id="10/1to9/1_0" depart="1" vclasses="" maxspeed="13.90" length="46.26">61.91,7.58 23.84,33.86</lane>
      </lanes>
   </edge>

   <edge id="11/1to10/1" from="11/1" to="10/1" priority="-1" type="netgen-default" function="normal">
      <lanes>
         <lane id="11/1to10/1_0" depart="1" vclasses="" maxspeed="13.90" length="46.26">108.55,1.73 62.63,7.31</lane>
      </lanes>
   </edge>

   <edge id="11/1to12/1" from="11/1" to="12/1" priority="-1" type="netgen-default" function="normal">
      <lanes>
         <lane id="11/1to12/1_0" depart="1" vclasses="" maxspeed="13.90" length="46.26">110.48,-1.26 153.74,15.15</lane>
      </lanes>
   </edge>

   <edge id="12/1to11/1" from="12/1" to="11/1" priority="-1" type="netgen-default" function="normal">
      <lanes>
         <lane id="12/1to11/1_0" depart="1" vclasses="" maxspeed="13.90" length="46.26">152.57,18.23 109.31,1.83</lane>
      </lanes>
   </edge>

   <edge id="12/1to13/1" from="12/1" to="13/1" priority="-1" type="netgen-default" function="normal">
      <lanes>
         <lane id="12/1to13/1_0" depart="1" vclasses="" maxspeed="13.90" length="46.26">155.67,16.48 186.34,51.10</lane>
      </lanes>
   </edge>

   <edge id="13/1to1/1" from="13/1" to="1/1" priority="-1" type="netgen-default" function="normal">
      <lanes>
         <lane id="13/1to1/1_0" depart="1" vclasses="" maxspeed="13.90" length="46.26">187.43,53.18 198.50,98.10</lane>
      </lanes>
   </edge>

   <edge id="13/1to12/1" from="13/1" to="12/1" priority="-1" type="netgen-default" function="normal">
      <lanes>
         <lane id="13/1to12/1_0" depart="1" vclasses="" maxspeed="13.90" length="46.26">183.87,53.29 153.20,18.67</lane>
      </lanes>
   </edge>

   <edge id="2/1to1/1" from="2/1" to="1/1" priority="-1" type="netgen-default" function="normal">
      <lanes>
         <lane id="2/1to1/1_0" depart="1" vclasses="" maxspeed="13.90" length="46.26">184.23,144.57 195.30,99.65</lane>
      </lanes>
   </edge>

   <edge id="2/1to3/1" from="2/1" to="3/1" priority="-1" type="netgen-default" function="normal">
      <lanes>
         <lane id="2/1to3/1_0" depart="1" vclasses="" maxspeed="13.90" length="46.26">186.34,147.44 155.67,182.06</lane>
      </lanes>
   </edge>

   <edge id="3/1to2/1" from="3/1" to="2/1" priority="-1" type="netgen-default" function="normal">
      <lanes>
         <lane id="3/1to2/1_0" depart="1" vclasses="" maxspeed="13.90" length="46.26">153.20,179.88 183.87,145.25</lane>
      </lanes>
   </edge>

   <edge id="3/1to4/1" from="3/1" to="4/1" priority="-1" type="netgen-default" function="normal">
      <lanes>
         <lane id="3/1to4/1_0" depart="1" vclasses="" maxspeed="13.90" length="46.26">153.74,183.40 110.48,199.80</lane>
      </lanes>
   </edge>

   <edge id="4/1to3/1" from="4/1" to="3/1" priority="-1" type="netgen-default" function="normal">
      <lanes>
         <lane id="4/1to3/1_0" depart="1" vclasses="" maxspeed="13.90" length="46.26">109.31,196.71 152.57,180.31</lane>
      </lanes>
   </edge>

   <edge id="4/1to5/1" from="4/1" to="5/1" priority="-1" type="netgen-default" function="normal">
      <lanes>
         <lane id="4/1to5/1_0" depart="1" vclasses="" maxspeed="13.90" length="46.26">108.15,200.08 62.23,194.51</lane>
      </lanes>
   </edge>

   <edge id="5/1to4/1" from="5/1" to="4/1" priority="-1" type="netgen-default" function="normal">
      <lanes>
         <lane id="5/1to4/1_0" depart="1" vclasses="" maxspeed="13.90" length="46.26">62.63,191.23 108.55,196.81</lane>
      </lanes>
   </edge>

   <edge id="5/1to6/1" from="5/1" to="6/1" priority="-1" type="netgen-default" function="normal">
      <lanes>
         <lane id="5/1to6/1_0" depart="1" vclasses="" maxspeed="13.90" length="46.26">60.04,193.68 21.97,167.40</lane>
      </lanes>
   </edge>

   <edge id="6/1to5/1" from="6/1" to="5/1" priority="-1" type="netgen-default" function="normal">
      <lanes>
         <lane id="6/1to5/1_0" depart="1" vclasses="" maxspeed="13.90" length="46.26">23.84,164.68 61.91,190.96</lane>
      </lanes>
   </edge>

   <edge id="6/1to7/1" from="6/1" to="7/1" priority="-1" type="netgen-default" function="normal">
      <lanes>
         <lane id="6/1to7/1_0" depart="1" vclasses="" maxspeed="13.90" length="46.26">20.41,165.64 -1.09,124.68</lane>
      </lanes>
   </edge>

   <edge id="7/1to6/1" from="7/1" to="6/1" priority="-1" type="netgen-default" function="normal">
      <lanes>
         <lane id="7/1to6/1_0" depart="1" vclasses="" maxspeed="13.90" length="46.26">1.83,123.14 23.33,164.11</lane>
      </lanes>
   </edge>

   <edge id="7/1to8/1" from="7/1" to="8/1" priority="-1" type="netgen-default" function="normal">
      <lanes>
         <lane id="7/1to8/1_0" depart="1" vclasses="" maxspeed="13.90" length="46.26">-1.65,122.40 -1.65,76.14</lane>
      </lanes>
   </edge>

   <edge id="8/1to7/1" from="8/1" to="7/1" priority="-1" type="netgen-default" function="normal">
      <lanes>
         <lane id="8/1to7/1_0" depart="1" vclasses="" maxspeed="13.90" length="46.26">1.65,76.14 1.65,122.40</lane>
      </lanes>
   </edge>

   <edge id="8/1to9/1" from="8/1" to="9/1" priority="-1" type="netgen-default" function="normal">
      <lanes>
         <lane id="8/1to9/1_0" depart="1" vclasses="" maxspeed="13.90" length="46.26">-1.09,73.86 20.41,32.90</lane>
      </lanes>
   </edge>

   <edge id="9/1to10/1" from="9/1" to="10/1" priority="-1" type="netgen-default" function="normal">
      <lanes>
         <lane id="9/1to10/1_0" depart="1" vclasses="" maxspeed="13.90" length="46.26">21.97,31.15 60.04,4.87</lane>
      </lanes>
   </edge>

   <edge id="9/1to8/1" from="9/1" to="8/1" priority="-1" type="netgen-default" function="normal">
      <lanes>
         <lane id="9/1to8/1_0" depart="1" vclasses="" maxspeed="13.90" length="46.26">23.33,34.43 1.83,75.40</lane>
      </lanes>
   </edge>


   <row-logic>
      <key>1/1</key>
      <requestsize>4</requestsize>
      <lanenumber>2</lanenumber>
      <logic>
         <logicitem request="0" response="0000" foes="1000"/>
         <logicitem request="1" response="0100" foes="0100"/>
         <logicitem request="2" response="0000" foes="0010"/>
         <logicitem request="3" response="0001" foes="0001"/>
      </logic>
   </row-logic>

   <row-logic>
      <key>10/1</key>
      <requestsize>4</requestsize>
      <lanenumber>2</lanenumber>
      <logic>
         <logicitem request="0" response="0000" foes="1000"/>
         <logicitem request="1" response="0100" foes="0100"/>
         <logicitem request="2" response="0000" foes="0010"/>
         <logicitem request="3" response="0001" foes="0001"/>
      </logic>
   </row-logic>

   <row-logic>
      <key>11/1</key>
      <requestsize>4</requestsize>
      <lanenumber>2</lanenumber>
      <logic>
         <logicitem request="0" response="0000" foes="1000"/>
         <logicitem request="1" response="0100" foes="0100"/>
         <logicitem request="2" response="0000" foes="0010"/>
         <logicitem request="3" response="0001" foes="0001"/>
      </logic>
   </row-logic>

   <row-logic>
      <key>12/1</key>
      <requestsize>4</requestsize>
      <lanenumber>2</lanenumber>
      <logic>
         <logicitem request="0" response="0000" foes="1000"/>
         <logicitem request="1" response="0100" foes="0100"/>
         <logicitem request="2" response="0000" foes="0010"/>
         <logicitem request="3" response="0001" foes="0001"/>
      </logic>
   </row-logic>

   <row-logic>
      <key>13/1</key>
      <requestsize>4</requestsize>
      <lanenumber>2</lanenumber>
      <logic>
         <logicitem request="0" response="0000" foes="1000"/>
         <logicitem request="1" response="0100" foes="0100"/>
         <logicitem request="2" response="0000" foes="0010"/>
         <logicitem request="3" response="0001" foes="0001"/>
      </logic>
   </row-logic>

   <row-logic>
      <key>2/1</key>
      <requestsize>4</requestsize>
      <lanenumber>2</lanenumber>
      <logic>
         <logicitem request="0" response="0000" foes="1000"/>
         <logicitem request="1" response="0100" foes="0100"/>
         <logicitem request="2" response="0000" foes="0010"/>
         <logicitem request="3" response="0001" foes="0001"/>
      </logic>
   </row-logic>

   <row-logic>
      <key>3/1</key>
      <requestsize>4</requestsize>
      <lanenumber>2</lanenumber>
      <logic>
         <logicitem request="0" response="0000" foes="1000"/>
         <logicitem request="1" response="0100" foes="0100"/>
         <logicitem request="2" response="0000" foes="0010"/>
         <logicitem request="3" response="0001" foes="0001"/>
      </logic>
   </row-logic>

   <row-logic>
      <key>4/1</key>
      <requestsize>4</requestsize>
      <lanenumber>2</lanenumber>
      <logic>
         <logicitem request="0" response="0000" foes="1000"/>
         <logicitem request="1" response="0100" foes="0100"/>
         <logicitem request="2" response="0000" foes="0010"/>
         <logicitem request="3" response="0001" foes="0001"/>
      </logic>
   </row-logic>

   <row-logic>
      <key>5/1</key>
      <requestsize>4</requestsize>
      <lanenumber>2</lanenumber>
      <logic>
         <logicitem request="0" response="0000" foes="1000"/>
         <logicitem request="1" response="0100" foes="0100"/>
         <logicitem request="2" response="0000" foes="0010"/>
         <logicitem request="3" response="0001" foes="0001"/>
      </logic>
   </row-logic>

   <row-logic>
      <key>6/1</key>
      <requestsize>4</requestsize>
      <lanenumber>2</lanenumber>
      <logic>
         <logicitem request="0" response="0000" foes="1000"/>
         <logicitem request="1" response="0100" foes="0100"/>
         <logicitem request="2" response="0000" foes="0010"/>
         <logicitem request="3" response="0001" foes="0001"/>
      </logic>
   </row-logic>

   <row-logic>
      <key>7/1</key>
      <requestsize>4</requestsize>
      <lanenumber>2</lanenumber>
      <logic>
         <logicitem request="0" response="0000" foes="1000"/>
         <logicitem request="1" response="0100" foes="0100"/>
         <logicitem request="2" response="0000" foes="0010"/>
         <logicitem request="3" response="0001" foes="0001"/>
      </logic>
   </row-logic>

   <row-logic>
      <key>8/1</key>
      <requestsize>4</requestsize>
      <lanenumber>2</lanenumber>
      <logic>
         <logicitem request="0" response="0000" foes="1000"/>
         <logicitem request="1" response="0100" foes="0100"/>
         <logicitem request="2" response="0000" foes="0010"/>
         <logicitem request="3" response="0001" foes="0001"/>
      </logic>
   </row-logic>

   <row-logic>
      <key>9/1</key>
      <requestsize>4</requestsize>
      <lanenumber>2</lanenumber>
      <logic>
         <logicitem request="0" response="0000" foes="1000"/>
         <logicitem request="1" response="0100" foes="0100"/>
         <logicitem request="2" response="0000" foes="0010"/>
         <logicitem request="3" response="0001" foes="0001"/>
      </logic>
   </row-logic>



   <junction id="1/1" type="priority" x="197.09" y="99.27">
      <inclanes>13/1to1/1_0 2/1to1/1_0</inclanes>
      <shape>200.06,97.72 193.75,99.27 200.06,100.83</shape>
   </junction>

   <junction id="10/1" type="priority" x="61.63" y="5.77">
      <inclanes>11/1to10/1_0 9/1to10/1_0</inclanes>
      <shape>62.82,8.90 62.04,2.45 59.13,3.55 62.82,8.90</shape>
   </junction>

   <junction id="11/1" type="priority" x="109.15" y="0.00">
      <inclanes>12/1to11/1_0 10/1to11/1_0</inclanes>
      <shape>108.74,3.32 111.05,-2.75 107.96,-3.13 108.74,3.32</shape>
   </junction>

   <junction id="12/1" type="priority" x="153.90" y="16.97">
      <inclanes>13/1to12/1_0 11/1to12/1_0</inclanes>
      <shape>152.00,19.73 156.86,15.42 154.30,13.65 152.00,19.73</shape>
   </junction>

   <junction id="13/1" type="priority" x="185.64" y="52.80">
      <inclanes>1/1to13/1_0 12/1to13/1_0</inclanes>
      <shape>182.68,54.35 188.99,52.80 187.54,50.04 182.68,54.35</shape>
   </junction>

   <junction id="2/1" type="priority" x="185.64" y="145.74">
      <inclanes>1/1to2/1_0 3/1to2/1_0</inclanes>
      <shape>188.99,145.74 182.68,144.19 187.54,148.50</shape>
   </junction>

   <junction id="3/1" type="priority" x="153.90" y="181.57">
      <inclanes>2/1to3/1_0 4/1to3/1_0</inclanes>
      <shape>156.86,183.12 152.00,178.81 154.30,184.89</shape>
   </junction>

   <junction id="4/1" type="priority" x="109.15" y="198.54">
      <inclanes>3/1to4/1_0 5/1to4/1_0</inclanes>
      <shape>111.05,201.30 108.74,195.22 107.96,201.67</shape>
   </junction>

   <junction id="5/1" type="priority" x="61.63" y="192.77">
      <inclanes>4/1to5/1_0 6/1to5/1_0</inclanes>
      <shape>62.04,196.10 62.82,189.64 59.13,194.99</shape>
   </junction>

   <junction id="6/1" type="priority" x="22.24" y="165.58">
      <inclanes>5/1to6/1_0 7/1to6/1_0</inclanes>
      <shape>21.06,168.71 24.75,163.36 18.99,166.38</shape>
   </junction>

   <junction id="7/1" type="priority" x="0.00" y="123.20">
      <inclanes>6/1to7/1_0 8/1to7/1_0</inclanes>
      <shape>-2.51,125.42 3.25,122.40 -3.25,122.40</shape>
   </junction>

   <junction id="8/1" type="priority" x="0.00" y="75.34">
      <inclanes>7/1to8/1_0 9/1to8/1_0</inclanes>
      <shape>-3.25,76.14 3.25,76.14 -2.51,73.12</shape>
   </junction>

   <junction id="9/1" type="priority" x="22.24" y="32.96">
      <inclanes>10/1to9/1_0 8/1to9/1_0</inclanes>
      <shape>24.75,35.18 21.06,29.83 18.99,32.16 24.75,35.18</shape>
   </junction>


   <succ edge="1/1to13/1" lane="1/1to13/1_0" junction="13/1">
      <succlane lane="13/1to12/1_0" yield="0" dir="s" state="M"/>
      <succlane lane="13/1to1/1_0" yield="1" dir="t" state="m"/>
   </succ>

   <succ edge="1/1to2/1" lane="1/1to2/1_0" junction="2/1">
      <succlane lane="2/1to3/1_0" yield="0" dir="s" state="M"/>
      <succlane lane="2/1to1/1_0" yield="1" dir="t" state="m"/>
   </succ>

   <succ edge="10/1to11/1" lane="10/1to11/1_0" junction="11/1">
      <succlane lane="11/1to12/1_0" yield="0" dir="s" state="M"/>
      <succlane lane="11/1to10/1_0" yield="1" dir="t" state="m"/>
   </succ>

   <succ edge="10/1to9/1" lane="10/1to9/1_0" junction="9/1">
      <succlane lane="9/1to8/1_0" yield="0" dir="s" state="M"/>
      <succlane lane="9/1to10/1_0" yield="1" dir="t" state="m"/>
   </succ>

   <succ edge="11/1to10/1" lane="11/1to10/1_0" junction="10/1">
      <succlane lane="10/1to9/1_0" yield="0" dir="s" state="M"/>
      <succlane lane="10/1to11/1_0" yield="1" dir="t" state="m"/>
   </succ>

   <succ edge="11/1to12/1" lane="11/1to12/1_0" junction="12/1">
      <succlane lane="12/1to13/1_0" yield="0" dir="s" state="M"/>
      <succlane lane="12/1to11/1_0" yield="1" dir="t" state="m"/>
   </succ>

   <succ edge="12/1to11/1" lane="12/1to11/1_0" junction="11/1">
      <succlane lane="11/1to10/1_0" yield="0" dir="s" state="M"/>
      <succlane lane="11/1to12/1_0" yield="1" dir="t" state="m"/>
   </succ>

   <succ edge="12/1to13/1" lane="12/1to13/1_0" junction="13/1">
      <succlane lane="13/1to1/1_0" yield="0" dir="s" state="M"/>
      <succlane lane="13/1to12/1_0" yield="1" dir="t" state="m"/>
   </succ>

   <succ edge="13/1to1/1" lane="13/1to1/1_0" junction="1/1">
      <succlane lane="1/1to2/1_0" yield="0" dir="s" state="M"/>
      <succlane lane="1/1to13/1_0" yield="1" dir="t" state="m"/>
   </succ>

   <succ edge="13/1to12/1" lane="13/1to12/1_0" junction="12/1">
      <succlane lane="12/1to11/1_0" yield="0" dir="s" state="M"/>
      <succlane lane="12/1to13/1_0" yield="1" dir="t" state="m"/>
   </succ>

   <succ edge="2/1to1/1" lane="2/1to1/1_0" junction="1/1">
      <succlane lane="1/1to13/1_0" yield="0" dir="s" state="M"/>
      <succlane lane="1/1to2/1_0" yield="1" dir="t" state="m"/>
   </succ>

   <succ edge="2/1to3/1" lane="2/1to3/1_0" junction="3/1">
      <succlane lane="3/1to4/1_0" yield="0" dir="s" state="M"/>
      <succlane lane="3/1to2/1_0" yield="1" dir="t" state="m"/>
   </succ>

   <succ edge="3/1to2/1" lane="3/1to2/1_0" junction="2/1">
      <succlane lane="2/1to1/1_0" yield="0" dir="s" state="M"/>
      <succlane lane="2/1to3/1_0" yield="1" dir="t" state="m"/>
   </succ>

   <succ edge="3/1to4/1" lane="3/1to4/1_0" junction="4/1">
      <succlane lane="4/1to5/1_0" yield="0" dir="s" state="M"/>
      <succlane lane="4/1to3/1_0" yield="1" dir="t" state="m"/>
   </succ>

   <succ edge="4/1to3/1" lane="4/1to3/1_0" junction="3/1">
      <succlane lane="3/1to2/1_0" yield="0" dir="s" state="M"/>
      <succlane lane="3/1to4/1_0" yield="1" dir="t" state="m"/>
   </succ>

   <succ edge="4/1to5/1" lane="4/1to5/1_0" junction="5/1">
      <succlane lane="5/1to6/1_0" yield="0" dir="s" state="M"/>
      <succlane lane="5/1to4/1_0" yield="1" dir="t" state="m"/>
   </succ>

   <succ edge="5/1to4/1" lane="5/1to4/1_0" junction="4/1">
      <succlane lane="4/1to3/1_0" yield="0" dir="s" state="M"/>
      <succlane lane="4/1to5/1_0" yield="1" dir="t" state="m"/>
   </succ>

   <succ edge="5/1to6/1" lane="5/1to6/1_0" junction="6/1">
      <succlane lane="6/1to7/1_0" yield="0" dir="s" state="M"/>
      <succlane lane="6/1to5/1_0" yield="1" dir="t" state="m"/>
   </succ>

   <succ edge="6/1to5/1" lane="6/1to5/1_0" junction="5/1">
      <succlane lane="5/1to4/1_0" yield="0" dir="s" state="M"/>
      <succlane lane="5/1to6/1_0" yield="1" dir="t" state="m"/>
   </succ>

   <succ edge="6/1to7/1" lane="6/1to7/1_0" junction="7/1">
      <succlane lane="7/1to8/1_0" yield="0" dir="s" state="M"/>
      <succlane lane="7/1to6/1_0" yield="1" dir="t" state="m"/>
   </succ>

   <succ edge="7/1to6/1" lane="7/1to6/1_0" junction="6/1">
      <succlane lane="6/1to5/1_0" yield="0" dir="s" state="M"/>
      <succlane lane="6/1to7/1_0" yield="1" dir="t" state="m"/>
   </succ>

   <succ edge="7/1to8/1" lane="7/1to8/1_0" junction="8/1">
      <succlane lane="8/1to9/1_0" yield="0" dir="s" state="M"/>
      <succlane lane="8/1to7/1_0" yield="1" dir="t" state="m"/>
   </succ>

   <succ edge="8/1to7/1" lane="8/1to7/1_0" junction="7/1">
      <succlane lane="7/1to6/1_0" yield="0" dir="s" state="M"/>
      <succlane lane="7/1to8/1_0" yield="1" dir="t" state="m"/>
   </succ>

   <succ edge="8/1to9/1" lane="8/1to9/1_0" junction="9/1">
      <succlane lane="9/1to10/1_0" yield="0" dir="s" state="M"/>
      <succlane lane="9/1to8/1_0" yield="1" dir="t" state="m"/>
   </succ>

   <succ edge="9/1to10/1" lane="9/1to10/1_0" junction="10/1">
      <succlane lane="10/1to11/1_0" yield="0" dir="s" state="M"/>
      <succlane lane="10/1to9/1_0" yield="1" dir="t" state="m"/>
   </succ>

   <succ edge="9/1to8/1" lane="9/1to8/1_0" junction="8/1">
      <succlane lane="8/1to7/1_0" yield="0" dir="s" state="M"/>
      <succlane lane="8/1to9/1_0" yield="1" dir="t" state="m"/>
   </succ>


</net>
