<?xml version="1.0"?>
<routes xmlns:xsi="http://www.w3.org/2001/XMLSchema-instance" xsi:noNamespaceSchemaLocation="http://sumo.dlr.de/xsd/routes_file.xsd">
	<vType id="REDosto7" vClass="rail" carFollowModel="Rail" trainType="REDosto7"/>
	<trip id="RE1" depart="0" from="beg" to="middle" type="REDosto7">
        <stop edge="beg" duration="30" endPos="-20" parking="true"/>
	</trip>
	<trip id="RE2" depart="10" from="-middle" to="-beg" type="REDosto7">
	</trip>
</routes>
