<?xml version="1.0" encoding="UTF-8"?>

<!-- generated on 2022-03-04 10:48:48 by Eclipse SUMO netedit Version v1_12_0+1137-e9106068858
-->

<additional xmlns:xsi="http://www.w3.org/2001/XMLSchema-instance" xsi:noNamespaceSchemaLocation="http://sumo.dlr.de/xsd/additional_file.xsd">
    <!-- Detectors -->
    <instantInductionLoop id="E1_A" name="DetectorA" lane="gneE0_0" pos="6.00" file="fileA.txt" vTypes="Type1 Type2 Type3">
        <param key="keyFinal1" value="value1"/>
        <param key="keyFinal2" value="value2"/>
        <param key="keyFinal3" value="value3"/>
    </instantInductionLoop>
    <instantInductionLoop id="E1_B" name="DetectorB" lane="gneE0_0" pos="10.00" file="fileB.txt" vTypes="Type4 Type5 Type6" friendlyPos="1">
        <param key="keyFinal1" value="value1"/>
        <param key="keyFinal2" value="value2"/>
        <param key="keyFinal3" value="value3"/>
    </instantInductionLoop>
</additional>
