<?xml version="1.0" encoding="UTF-8"?>

<!-- generated on 2023-02-23 16:23:43 by Eclipse SUMO netedit Version v1_16_0+0659-f7c8a084c16
-->

<additional xmlns:xsi="http://www.w3.org/2001/XMLSchema-instance" xsi:noNamespaceSchemaLocation="http://sumo.dlr.de/xsd/additional_file.xsd">
    <!-- Other additionals -->
    <vaporizer id="center0" begin="10.00" end="15.00">
        <param key="$$key with spaces%%" value="value4"/>
        <param key="key1" value="value5"/>
        <param key="key2" value=""/>
        <param key="key3" value="$$value with spaces%%"/>
        <param key="keyFinal" value="valueFinal"/>
    </vaporizer>
</additional>
