<?xml version="1.0"?>

<!-- generated on Tue Nov 20 16:20:41 2012 by SUMO sumo Version dev-SVN-r13008
<?xml version="1.0" encoding="UTF-8"?>

<configuration xmlns:xsi="http://www.w3.org/2001/XMLSchema-instance" xsi:noNamespaceSchemaLocation="http://sumo.sf.net/xsd/sumoConfiguration.xsd">

    <input>
        <net-file value="net.net.xml"/>
        <route-files value="input_routes.rou.xml"/>
        <additional-files value="input_additional.add.xml"/>
    </input>

    <time>
        <begin value="0"/>
        <end value="10000"/>
    </time>

    <report>
        <no-duration-log value="true"/>
        <no-step-log value="true"/>
    </report>

</configuration>
-->

<netstats>
    <interval begin="0.00" end="60.00" id="dump_60">
        <edge id="1/1to2/1" sampledSeconds="621.09" traveltime="58.69" density="10.56" occupancy="5.28" waitingTime="19.00" speed="16.70" departed="21" arrived="0" entered="0" left="2" laneChangedFrom="0" laneChangedTo="0"/>
        <edge id="2/1to3/1" sampledSeconds="8.11" traveltime="50.00" density="0.14" occupancy="0.07" waitingTime="0.00" speed="19.60" departed="0" arrived="0" entered="2" left="0" laneChangedFrom="0" laneChangedTo="0"/>
    </interval>
    <interval begin="60.00" end="120.00" id="dump_60">
        <edge id="1/1to2/1" sampledSeconds="1096.71" traveltime="54.84" density="18.65" occupancy="9.33" waitingTime="20.00" speed="17.87" departed="20" arrived="0" entered="0" left="20" laneChangedFrom="0" laneChangedTo="0"/>
        <edge id="2/1to3/1" sampledSeconds="689.72" traveltime="50.01" density="11.73" occupancy="5.87" waitingTime="0.00" speed="19.59" departed="0" arrived="0" entered="20" left="6" laneChangedFrom="0" laneChangedTo="0"/>
        <edge id="3/1to4/1" sampledSeconds="46.18" traveltime="50.01" density="0.79" occupancy="0.39" waitingTime="0.00" speed="19.60" departed="0" arrived="0" entered="6" left="0" laneChangedFrom="0" laneChangedTo="0"/>
    </interval>
    <interval begin="120.00" end="180.00" id="dump_60">
        <edge id="1/1to2/1" sampledSeconds="1096.71" traveltime="54.84" density="18.65" occupancy="9.33" waitingTime="20.00" speed="17.87" departed="20" arrived="0" entered="0" left="20" laneChangedFrom="0" laneChangedTo="0"/>
        <edge id="2/1to3/1" sampledSeconds="1005.42" traveltime="50.02" density="17.10" occupancy="8.55" waitingTime="0.00" speed="19.59" departed="0" arrived="0" entered="20" left="20" laneChangedFrom="0" laneChangedTo="0"/>
        <edge id="3/1to4/1" sampledSeconds="815.84" traveltime="50.01" density="13.88" occupancy="6.94" waitingTime="0.00" speed="19.59" departed="0" arrived="0" entered="20" left="9" laneChangedFrom="0" laneChangedTo="0"/>
        <edge id="4/1to5/1" sampledSeconds="116.95" traveltime="50.01" density="1.99" occupancy="0.99" waitingTime="0.00" speed="19.59" departed="0" arrived="0" entered="9" left="0" laneChangedFrom="0" laneChangedTo="0"/>
    </interval>
    <interval begin="180.00" end="240.00" id="dump_60">
        <edge id="1/1to2/1" sampledSeconds="1096.71" traveltime="54.84" density="18.65" occupancy="9.33" waitingTime="20.00" speed="17.87" departed="20" arrived="0" entered="0" left="20" laneChangedFrom="0" laneChangedTo="0"/>
        <edge id="2/1to3/1" sampledSeconds="1005.42" traveltime="50.02" density="17.10" occupancy="8.55" waitingTime="0.00" speed="19.59" departed="0" arrived="0" entered="20" left="20" laneChangedFrom="0" laneChangedTo="0"/>
        <edge id="3/1to4/1" sampledSeconds="1005.42" traveltime="50.02" density="17.10" occupancy="8.55" waitingTime="0.00" speed="19.59" departed="0" arrived="0" entered="20" left="20" laneChangedFrom="0" laneChangedTo="0"/>
        <edge id="4/1to5/1" sampledSeconds="909.99" traveltime="50.01" density="15.48" occupancy="7.74" waitingTime="0.00" speed="19.59" departed="0" arrived="0" entered="20" left="12" laneChangedFrom="0" laneChangedTo="0"/>
        <edge id="5/1to6/1" sampledSeconds="219.71" traveltime="50.01" density="3.74" occupancy="1.87" waitingTime="0.00" speed="19.59" departed="0" arrived="0" entered="12" left="0" laneChangedFrom="0" laneChangedTo="0"/>
    </interval>
    <interval begin="240.00" end="300.00" id="dump_60">
        <edge id="1/1to2/1" sampledSeconds="1096.71" traveltime="54.84" density="18.65" occupancy="9.33" waitingTime="20.00" speed="17.87" departed="20" arrived="0" entered="0" left="20" laneChangedFrom="0" laneChangedTo="0"/>
        <edge id="2/1to3/1" sampledSeconds="1005.42" traveltime="50.02" density="17.10" occupancy="8.55" waitingTime="0.00" speed="19.59" departed="0" arrived="0" entered="20" left="20" laneChangedFrom="0" laneChangedTo="0"/>
        <edge id="3/1to4/1" sampledSeconds="1005.42" traveltime="50.02" density="17.10" occupancy="8.55" waitingTime="0.00" speed="19.59" departed="0" arrived="0" entered="20" left="20" laneChangedFrom="0" laneChangedTo="0"/>
        <edge id="4/1to5/1" sampledSeconds="1005.42" traveltime="50.02" density="17.10" occupancy="8.55" waitingTime="0.00" speed="19.59" departed="0" arrived="0" entered="20" left="20" laneChangedFrom="0" laneChangedTo="0"/>
        <edge id="5/1to6/1" sampledSeconds="972.15" traveltime="50.02" density="16.53" occupancy="8.27" waitingTime="0.00" speed="19.59" departed="0" arrived="0" entered="20" left="15" laneChangedFrom="0" laneChangedTo="0"/>
        <edge id="6/1to7/1" sampledSeconds="354.44" traveltime="50.01" density="6.03" occupancy="3.01" waitingTime="0.00" speed="19.59" departed="0" arrived="0" entered="15" left="0" laneChangedFrom="0" laneChangedTo="0"/>
    </interval>
    <interval begin="300.00" end="360.00" id="dump_60">
        <edge id="1/1to2/1" sampledSeconds="1096.71" traveltime="54.84" density="18.65" occupancy="9.33" waitingTime="20.00" speed="17.87" departed="20" arrived="0" entered="0" left="20" laneChangedFrom="0" laneChangedTo="0"/>
        <edge id="2/1to3/1" sampledSeconds="1005.42" traveltime="50.02" density="17.10" occupancy="8.55" waitingTime="0.00" speed="19.59" departed="0" arrived="0" entered="20" left="20" laneChangedFrom="0" laneChangedTo="0"/>
        <edge id="3/1to4/1" sampledSeconds="1005.42" traveltime="50.02" density="17.10" occupancy="8.55" waitingTime="0.00" speed="19.59" departed="0" arrived="0" entered="20" left="20" laneChangedFrom="0" laneChangedTo="0"/>
        <edge id="4/1to5/1" sampledSeconds="1005.42" traveltime="50.02" density="17.10" occupancy="8.55" waitingTime="0.00" speed="19.59" departed="0" arrived="0" entered="20" left="20" laneChangedFrom="0" laneChangedTo="0"/>
        <edge id="5/1to6/1" sampledSeconds="1005.42" traveltime="50.02" density="17.10" occupancy="8.55" waitingTime="0.00" speed="19.59" departed="0" arrived="0" entered="20" left="20" laneChangedFrom="0" laneChangedTo="0"/>
        <edge id="6/1to7/1" sampledSeconds="1002.02" traveltime="50.02" density="17.04" occupancy="8.52" waitingTime="0.00" speed="19.59" departed="0" arrived="0" entered="20" left="19" laneChangedFrom="0" laneChangedTo="0"/>
        <edge id="7/1to8/1" sampledSeconds="515.55" traveltime="50.01" density="8.77" occupancy="4.38" waitingTime="0.00" speed="19.59" departed="0" arrived="0" entered="19" left="2" laneChangedFrom="0" laneChangedTo="0"/>
        <edge id="8/1to9/1" sampledSeconds="6.22" traveltime="50.00" density="0.11" occupancy="0.05" waitingTime="0.00" speed="19.60" departed="0" arrived="0" entered="2" left="0" laneChangedFrom="0" laneChangedTo="0"/>
    </interval>
    <interval begin="360.00" end="420.00" id="dump_60">
        <edge id="1/1to2/1" sampledSeconds="1096.71" traveltime="54.84" density="18.65" occupancy="9.33" waitingTime="20.00" speed="17.87" departed="20" arrived="0" entered="0" left="20" laneChangedFrom="0" laneChangedTo="0"/>
        <edge id="2/1to3/1" sampledSeconds="1005.42" traveltime="50.02" density="17.10" occupancy="8.55" waitingTime="0.00" speed="19.59" departed="0" arrived="0" entered="20" left="20" laneChangedFrom="0" laneChangedTo="0"/>
        <edge id="3/1to4/1" sampledSeconds="1005.42" traveltime="50.02" density="17.10" occupancy="8.55" waitingTime="0.00" speed="19.59" departed="0" arrived="0" entered="20" left="20" laneChangedFrom="0" laneChangedTo="0"/>
        <edge id="4/1to5/1" sampledSeconds="1005.42" traveltime="50.02" density="17.10" occupancy="8.55" waitingTime="0.00" speed="19.59" departed="0" arrived="0" entered="20" left="20" laneChangedFrom="0" laneChangedTo="0"/>
        <edge id="5/1to6/1" sampledSeconds="1005.42" traveltime="50.02" density="17.10" occupancy="8.55" waitingTime="0.00" speed="19.59" departed="0" arrived="0" entered="20" left="20" laneChangedFrom="0" laneChangedTo="0"/>
        <edge id="6/1to7/1" sampledSeconds="1005.42" traveltime="50.02" density="17.10" occupancy="8.55" waitingTime="0.00" speed="19.59" departed="0" arrived="0" entered="20" left="20" laneChangedFrom="0" laneChangedTo="0"/>
        <edge id="7/1to8/1" sampledSeconds="