<?xml version="1.0" encoding="UTF-8"?>

<!-- generated on 10.12.2018 09:20:27 by Eclipse SUMO netedit Version v1_0_0+1208-d42a3cd999
-->

<additional xmlns:xsi="http://www.w3.org/2001/XMLSchema-instance" xsi:noNamespaceSchemaLocation="http://sumo.dlr.de/xsd/additional_file.xsd">
    <parkingArea id="pa_0" lane="gneE0_0" startPos="22.00" endPos="28.00"/>
    <parkingArea id="pa_1" lane="gneE0_0" startPos="6.00" endPos="12.00"/>
</additional>
