<edges>

	<edge id="1" from="0" to="1" nolanes="2" speed="28.">
		<split lanes="1" pos="50"/>
	</edge>

</edges>




