<?xml version="1.0"?>

<!-- generated on 02/03/09 16:09:53 by SUMO sumo Version dev-SVN-r6717
<configuration>

   <input>
      <net-file>net.net.xml</net-file>
      <additional-files>input_routes.rou.xml,input_additional.add.xml,input_additional2.add.xml</additional-files>
   </input>

   <time>
      <begin>0</begin>
      <end>1000</end>
   </time>

   <processing>
      <no-duration-log>true</no-duration-log>
      <no-step-log>true</no-step-log>
   </processing>

</configuration>
-->

<netstats>
   <interval begin="0" end="14" id="dump_15">
      <edge id="4/1to3/1">
         <lane id="4/1to3/1_0" sampledSeconds="15.00" CO_abs="0.00" CO2_abs="25.20" HC_abs="0.00" PMx_abs="0.00" NOx_abs="0.04" fuel_abs="0.01" CO_normed="0.00" CO2_normed="15488.49" HC_normed="2.71" PMx_normed="0.90" NOx_normed="24.57" fuel_normed="6.18"/>
      </edge>
   </interval>
   <interval begin="15" end="29" id="dump_15">
      <edge id="4/1to3/1">
         <lane id="4/1to3/1_0" sampledSeconds="15.00" CO_abs="0.00" CO2_abs="25.20" HC_abs="0.00" PMx_abs="0.00" NOx_abs="0.04" fuel_abs="0.01" CO_normed="0.00" CO2_normed="15488.49" HC_normed="2.71" PMx_normed="0.90" NOx_normed="24.57" fuel_normed="6.18"/>
      </edge>
   </interval>
   <interval begin="30" end="44" id="dump_15">
      <edge id="3/1to2/1">
         <lane id="3/1to2/1_0" sampledSeconds="14.95" CO_abs="0.00" CO2_abs="25.12" HC_abs="0.00" PMx_abs="0.00" NOx_abs="0.04" fuel_abs="0.01" CO_normed="0.00" CO2_normed="15436.86" HC_normed="2.70" PMx_normed="0.90" NOx_normed="24.49" fuel_normed="6.15"/>
      </edge>
      <edge id="4/1to3/1">
         <lane id="4/1to3/1_0" sampledSeconds="0.05" CO_abs="0.00" CO2_abs="0.08" HC_abs="0.00" PMx_abs="0.00" NOx_abs="0.00" fuel_abs="0.00" CO_normed="0.00" CO2_normed="51.63" HC_normed="0.01" PMx_normed="0.00" NOx_normed="0.08" fuel_normed="0.02"/>
      </edge>
   </interval>
   <interval begin="45" end="59" id="dump_15">
      <edge id="3/1to2/1">
         <lane id="3/1to2/1_0" sampledSeconds="15.00" CO_abs="0.00" CO2_abs="25.20" HC_abs="0.00" PMx_abs="0.00" NOx_abs="0.04" fuel_abs="0.01" CO_normed="0.00" CO2_normed="15488.49" HC_normed="2.71" PMx_normed="0.90" NOx_normed="24.57" fuel_normed="6.18"/>
      </edge>
   </interval>
   <interval begin="60" end="74" id="dump_15">
      <edge id="2/1to1/1">
         <lane id="2/1to1/1_0" sampledSeconds="5.90" CO_abs="0.00" CO2_abs="9.91" HC_abs="0.00" PMx_abs="0.00" NOx_abs="0.02" fuel_abs="0.00" CO_normed="0.00" CO2_normed="6092.14" HC_normed="1.07" PMx_normed="0.36" NOx_normed="9.67" fuel_normed="2.43"/>
      </edge>
      <edge id="3/1to2/1">
         <lane id="3/1to2/1_0" sampledSeconds="9.10" CO_abs="0.00" CO2_abs="15.29" HC_abs="0.00" PMx_abs="0.00" NOx_abs="0.02" fuel_abs="0.01" CO_normed="0.00" CO2_normed="9396.35" HC_normed="1.65" PMx_normed="0.55" NOx_normed="14.91" fuel_normed="3.75"/>
      </edge>
   </interval>
   <interval begin="75" end="89" id="dump_15">
      <edge id="2/1to1/1">
         <lane id="2/1to1/1_0" sampledSeconds="15.00" CO_abs="0.00" CO2_abs="25.20" HC_abs="0.00" PMx_abs="0.00" NOx_abs="0.04" fuel_abs="0.01" CO_normed="0.00" CO2_normed="15488.49" HC_normed="2.71" PMx_normed="0.90" NOx_normed="24.57" fuel_normed="6.18"/>
      </edge>
   </interval>
   <interval begin="90" end="104" id="dump_15">
      <edge id="2/1to1/1">
         <lane id="2/1to1/1_0" sampledSeconds="15.00" CO_abs="0.00" CO2_abs="25.20" HC_abs="0.00" PMx_abs="0.00" NOx_abs="0.04" fuel_abs="0.01" CO_normed="0.00" CO2_normed="15488.49" HC_normed="2.71" PMx_normed="0.90" NOx_normed="24.57" fuel_normed="6.18"/>
      </edge>
   </interval>
   <interval begin="105" end="119" id="dump_15">
      <edge id="1/1to0/1">
         <lane id="1/1to0/1_0" sampledSeconds="0.85" CO_abs="0.00" CO2_abs="1.43" HC_abs="0.00" PMx_abs="0.00" NOx_abs="0.00" fuel_abs="0.00" CO_normed="0.00" CO2_normed="877.68" HC_normed="0.15" PMx_normed="0.05" NOx_normed="1.39" fuel_normed="0.35"/>
      </edge>
      <edge id="2/1to1/1">
         <lane id="2/1to1/1_0" sampledSeconds="3.15" CO_abs="0.00" CO2_abs="5.29" HC_abs="0.00" PMx_abs="0.00" NOx_abs="0.01" fuel_abs="0.00" CO_normed="0.00" CO2_normed="3252.58" HC_normed="0.57" PMx_normed="0.19" NOx_normed="5.16" fuel_normed="1.30"/>
      </edge>
   </interval>
   <interval begin="120" end="134" id="dump_15">
   </interval>
   <interval begin="135" end="149" id="dump_15">
   </interval>
   <interval begin="150" end="164" id="dump_15">
   </interval>
   <interval begin="165" end="179" id="dump_15">
   </interval>
   <interval begin="180" end="194" id="dump_15">
   </interval>
   <interval begin="195" end="209" id="dump_15">
   </interval>
   <interval begin="210" end="224" id="dump_15">
   </interval>
   <interval begin="225" end="239" id="dump_15">
   </interval>
   <interval begin="240" end="254" id="dump_15">
   </interval>
   <interval begin="255" end="269" id="dump_15">
   </interval>
   <interval begin="270" end="284" id="dump_15">
   </interval>
   <interval begin="285" end="299" id="dump_15">
   </interval>
   <interval begin="300" end="314" id="dump_15">
   </interval>
   <interval begin="315" end="329" id="dump_15">
   </interval>
   <interval begin="330" end="344" id="dump_15">
   </interval>
   <interval begin="345" end="359" id="dump_15">
   </interval>
   <interval begin="360" end="374" id="dump_15">
   </interval>
   <interval begin="375" end="389" id="dump_15">
   </interval>
   <interval begin="390" end="404" id="dump_15">
   </interval>
   <interval begin="405" end="419" id="dump_15">
   </interval>
   <interval begin="420" end="434" id="dump_15">
   </interval>
   <interval begin="435" end="449" id="dump_15">
   </interval>
   <interval begin="450" end="464" id="dump_15">
   </interval>
   <interval begin="465" end="479" id="dump_15">
   </interval>
   <interval begin="480" end="494" id="dump_15">
   </interval>
   <interval begin="495" end="509" id="dump_15">
   </interval>
   <interval begin="510" end="524" id="dump_15">
   </interval>
   <interval begin="525" end="539" id="dump_15">
   </interval>
   <interval begin="540" end="554" id="dump_15">
   </interval>
   <interval begin="555" end="569" id="dump_15">
   </interval>
   <interval begin="570" end="584" id="dump_15">
   </interval>
   <interval begin="585" end="599" id="dump_15">
   </interval>
   <interval begin="600" end="614" id="dump_15">
   </interval>
   <interval begin="615" end="629" id="dump_15">
   </interval>
   <interval begin="630" end="644" id="dump_15">
   </interval>
   <interval begin="645" end="659" id="dump_15">
   </interval>
   <interval begin="660" end="674" id="dump_15">
   </interval>
   <interval begin="675" end="689" id="dump_15">
   </interval>
   <interval begin="690" end="704" id="dump_15">
   </interval>
   <interval begin="705" end="719" id="dump_15">
   </interval>
   <interval begin="720" end="734" id="dump_15">
   </interval>
   <interval begin="735" end="749" id="dump_15">
   </interval>
   <interval begin="750" end="764" id="dump_15">
   </interval>
   <interval begin="765" end="779" id="dump_15">
   </interval>
   <interval begin="780" end="794" id="dump_15">
   </interval>
   <interval begin="795" end="809" id="dump_15">
   </interval>
   <interval begin="810" end="824" id="dump_15">
   </interval>
   <interval begin="825" end="839" id="dump_15">
   </interval>
   <interval begin="840" end="854" id="dump_15">
   </interval>
   <interval begin="855" end="869" id="dump_15">
   </interval>
   <interval begin="870" end="884" id="dump_15">
   </interval>
   <interval begin="885" end="899" id="dump_15">
   </interval>
   <interval begin="900" end="914" id="dump_15">
   </interval>
   <interval begin="915" end="929" id="dump_15">
   </interval>
   <interval begin="930" end="944" id="dump_15">
   </interval>
   <interval begin="945" end="959" id="dump_15">
   </interval>
   <interval begin="960" end="974" id="dump_15">
   </interval>
   <interval begin="975" end="989" id="dump_15">
   </interval>
   <interval begin="990" end="1000" id="dump_15">
   </interval>
</netstats>
