<?xml version="1.0"?>

<!-- generated on 04/30/09 09:15:30 by SUMO sumo Version dev-SVN-r7092
<configuration>

   <input>
      <net-file>net.net.xml</net-file>
      <additional-files>input_routes.rou.xml,input_additional.add.xml,input_additional2.add.xml</additional-files>
   </input>

   <time>
      <begin>0</begin>
      <end>150</end>
   </time>

   <processing>
      <no-duration-log>true</no-duration-log>
      <no-step-log>true</no-step-log>
   </processing>

</configuration>
-->

<netstats>
   <interval begin="0" end="60" id="dump_60">
      <edge id="3/1to2/1">
         <lane id="3/1to2/1_0" sampledSeconds="29.95" CO_abs="0.00" CO2_abs="50.32" HC_abs="0.01" PMx_abs="0.00" NOx_abs="0.08" fuel_abs="0.02" CO_normed="0.00" CO2_normed="7731.33" HC_normed="1.35" PMx_normed="0.45" NOx_normed="12.27" fuel_normed="3.08"/>
      </edge>
      <edge id="4/1to3/1">
         <lane id="4/1to3/1_0" sampledSeconds="30.05" CO_abs="0.00" CO2_abs="50.49" HC_abs="0.01" PMx_abs="0.00" NOx_abs="0.08" fuel_abs="0.02" CO_normed="0.00" CO2_normed="7757.15" HC_normed="1.36" PMx_normed="0.45" NOx_normed="12.31" fuel_normed="3.09"/>
      </edge>
   </interval>
   <interval begin="60" end="120" id="dump_60">
      <edge id="1/1to0/1">
         <lane id="1/1to0/1_0" sampledSeconds="0.85" CO_abs="0.00" CO2_abs="1.43" HC_abs="0.00" PMx_abs="0.00" NOx_abs="0.00" fuel_abs="0.00" CO_normed="0.00" CO2_normed="219.42" HC_normed="0.04" PMx_normed="0.01" NOx_normed="0.35" fuel_normed="0.09"/>
      </edge>
      <edge id="2/1to1/1">
         <lane id="2/1to1/1_0" sampledSeconds="39.05" CO_abs="0.00" CO2_abs="65.61" HC_abs="0.01" PMx_abs="0.00" NOx_abs="0.10" fuel_abs="0.03" CO_normed="0.00" CO2_normed="10080.42" HC_normed="1.77" PMx_normed="0.59" NOx_normed="15.99" fuel_normed="4.02"/>
      </edge>
      <edge id="3/1to2/1">
         <lane id="3/1to2/1_0" sampledSeconds="9.10" CO_abs="0.00" CO2_abs="15.29" HC_abs="0.00" PMx_abs="0.00" NOx_abs="0.02" fuel_abs="0.01" CO_normed="0.00" CO2_normed="2349.09" HC_normed="0.41" PMx_normed="0.14" NOx_normed="3.73" fuel_normed="0.94"/>
      </edge>
   </interval>
   <interval begin="120" end="151" id="dump_60">
   </interval>
</netstats>
