<?xml version="1.0" encoding="UTF-8"?>

<!-- generated on 2025-05-05 10:48:09 by Eclipse SUMO netedit Version v1_22_0+1858-de29287ed81
-->

<routes xmlns:xsi="http://www.w3.org/2001/XMLSchema-instance" xsi:noNamespaceSchemaLocation="http://sumo.dlr.de/xsd/routes_file.xsd">
    <!-- Vehicles, persons and containers (sorted by depart) -->
    <vehicle id="v_0" depart="0.00">
        <route edges="E0 E1 E2"/>
    </vehicle>
    <vehicle id="v_1" depart="500.00">
        <route edges="E0 E3"/>
    </vehicle>
</routes>
