<?xml version="1.0" encoding="UTF-8"?>

<!-- generated on 10.07.2018 14:24:12 by Eclipse SUMO GUI Version 88bb7b0b92
<configuration xmlns:xsi="http://www.w3.org/2001/XMLSchema-instance" xsi:noNamespaceSchemaLocation="http://sumo.dlr.de/xsd/sumoConfiguration.xsd">

    <input>
        <net-file value="C:\Projects\sumo\tests\netedit\additionalElements\e1InstantDetector\inspect_selection\net.netedit"/>
        <additional-files value="C:\Projects\sumo\tests\netedit\additionalElements\e1InstantDetector\inspect_selection\additionals.netedit"/>
    </input>

</configuration>
-->

<instantE1 xmlns:xsi="http://www.w3.org/2001/XMLSchema-instance" xsi:noNamespaceSchemaLocation="http://sumo.dlr.de/xsd/instant_e1_file.xsd">
</instantE1>
