<?xml version="1.0" encoding="UTF-8"?>

<!-- generated on 2025-09-12T11:19:04.773055+01:00 by Eclipse SUMO netedit v1_24_0+0773-3497f14b529
<neteditConfiguration xmlns:xsi="http://www.w3.org/2001/XMLSchema-instance" xsi:noNamespaceSchemaLocation="http://sumo.dlr.de/xsd/neteditConfiguration.xsd">

    <input>
        <sumo-net-file value="net.net.xml"/>
    </input>

    <processing>
        <geometry.min-radius.fix.railways value="false"/>
        <geometry.avoid-overlap value="false"/>
        <geometry.max-grade.fix value="false"/>
        <offset.disable-normalization value="true"/>
        <lefthand value="0"/>
    </processing>

    <junctions>
        <no-turnarounds value="true"/>
        <junctions.corner-detail value="0"/>
        <junctions.limit-turn-speed value="-1.00"/>
        <rectangular-lane-cut value="0"/>
    </junctions>

    <pedestrian>
        <walkingareas value="0"/>
    </pedestrian>

</neteditConfiguration>
-->

<edges version="1.20" xmlns:xsi="http://www.w3.org/2001/XMLSchema-instance" xsi:noNamespaceSchemaLocation="http://sumo.dlr.de/xsd/edges_file.xsd">
    <edge id="CN" from="C" to="N" priority="2" numLanes="2" speed="13.89"/>
    <edge id="CW" from="C" to="W" priority="-1" numLanes="1" speed="13.89" shape="100.00,103.20 0.00,103.20" allow="bicycle"/>
    <edge id="EC" from="E" to="C" priority="2" numLanes="2" speed="13.89">
        <lane index="0" allow="bicycle" width="1.00"/>
        <lane index="1"/>
    </edge>
    <edge id="SC" from="S" to="C" priority="2" numLanes="2" speed="13.89"/>
</edges>
