<?xml version="1.0" encoding="UTF-8"?>

<!-- generated on 2022-04-12 12:56:27 by Eclipse SUMO netedit Version v1_12_0+2097-a9d6d94fee1
-->

<routes xmlns:xsi="http://www.w3.org/2001/XMLSchema-instance" xsi:noNamespaceSchemaLocation="http://sumo.dlr.de/xsd/routes_file.xsd">
    <!-- Vehicles, persons and containers (sorted by depart) -->
    <flow id="f_0" begin="0.00" fromJunction="gneJ4" toJunction="gneJ7" end="3600.00" period="2.00"/>
    <flow id="f_1" begin="0.00" fromJunction="gneJ4" toJunction="gneJ7" end="3600.00" period="20.50"/>
</routes>
