<?xml version="1.0"?>

<!-- generated on 07/11/08 10:05:27 by SUMO duarouter Version 0.9.7
<configuration>

   <input>
      <net-file>input_net.net.xml</net-file>
      <sumo-input>input_routes.rou.xml</sumo-input>
   </input>

   <output>
      <output-file>routes.rou.xml</output-file>
   </output>

</configuration>
-->

<routes>
   <vtype model="SUMO_KRAUSS" id="0" accel="2.00" decel="4.00" sigma="0.90" length="5.50" maxspeed="70.00" tau="1.00"/>
   <vehicle id="0" type="0" depart="0">
      <route>beg middle end rend</route>
   </vehicle>
   <vehicle id="1" type="0" depart="10">
      <route>beg middle end rend</route>
   </vehicle>
   <vehicle id="2" type="0" depart="20">
      <route>beg middle end rend</route>
   </vehicle>
   <vehicle id="3" type="0" depart="30">
      <route>beg middle end rend</route>
   </vehicle>
   <vehicle id="4" type="0" depart="40">
      <route>beg middle end rend</route>
   </vehicle>
   <vehicle id="5" type="0" depart="50">
      <route>beg middle end rend</route>
   </vehicle>
   <vehicle id="6" type="0" depart="60">
      <route>beg middle end rend</route>
   </vehicle>
   <vehicle id="7" type="0" depart="70">
      <route>beg middle end rend</route>
   </vehicle>
   <vehicle id="8" type="0" depart="80">
      <route>beg middle end rend</route>
   </vehicle>
   <vehicle id="9" type="0" depart="90">
      <route>beg middle end rend</route>
   </vehicle>
</routes>
