<?xml version="1.0" encoding="UTF-8"?>

<!-- generated on 2022-01-17 19:53:32 by Eclipse SUMO sumo Version v1_11_0+1223-fb0f78147da
This data file and the accompanying materials
are made available under the terms of the Eclipse Public License v2.0
which accompanies this distribution, and is available at
http://www.eclipse.org/legal/epl-v20.html
SPDX-License-Identifier: EPL-2.0
<configuration xmlns:xsi="http://www.w3.org/2001/XMLSchema-instance" xsi:noNamespaceSchemaLocation="http://sumo.dlr.de/xsd/sumoConfiguration.xsd">

    <input>
        <net-file value="net.net.xml"/>
        <route-files value="input_routes.rou.xml"/>
        <additional-files value="input_additional.add.xml,input_additional2.add.xml"/>
    </input>

    <output>
        <write-license value="true"/>
    </output>

    <processing>
        <default.speeddev value="0"/>
    </processing>

    <report>
        <verbose value="true"/>
        <xml-validation value="never"/>
        <xml-validation.routes value="never"/>
        <duration-log.statistics value="true"/>
        <no-step-log value="true"/>
    </report>

</configuration>
-->

<tlsStates xmlns:xsi="http://www.w3.org/2001/XMLSchema-instance" xsi:noNamespaceSchemaLocation="http://sumo.dlr.de/xsd/tlsstates_file.xsd">
    <tlsState time="0.00" id="2881" programID="NEMA" phase="0" state="GGGGGrrrrrrr" name="4+4"/>
    <tlsState time="10.00" id="2881" programID="NEMA" phase="1" state="yyyyyrrrrrrr" name="4+4"/>
    <tlsState time="15.00" id="2881" programID="NEMA" phase="0" state="rrrrrrrrrrrr" name="4+4"/>
    <tlsState time="16.00" id="2881" programID="NEMA" phase="1" state="srrrrGGrrGGG" name="2+6"/>
    <tlsState time="79.00" id="2881" programID="NEMA" phase="0" state="srrrryyrryyy" name="2+6"/>
    <tlsState time="83.00" id="2881" programID="NEMA" phase="1" state="rrrrrrrrrrrr" name="2+6"/>
    <tlsState time="84.00" id="2881" programID="NEMA" phase="0" state="GGGGGrrrrrrr" name="4+4"/>
    <tlsState time="99.00" id="2881" programID="NEMA" phase="1" state="yyyyyrrrrrrr" name="4+4"/>
    <tlsState time="104.00" id="2881" programID="NEMA" phase="0" state="rrrrrrrrrrrr" name="4+4"/>
    <tlsState time="105.00" id="2881" programID="NEMA" phase="1" state="srrrrGGrrGGG" name="2+6"/>
    <tlsState time="115.00" id="2881" programID="NEMA" phase="0" state="srrrryyrryyy" name="2+6"/>
    <tlsState time="119.00" id="2881" programID="NEMA" phase="1" state="rrrrrrrrrrrr" name="2+6"/>
    <tlsState time="120.00" id="2881" programID="NEMA" phase="0" state="GGGGGrrrrrrr" name="4+4"/>
    <tlsState time="130.00" id="2881" programID="NEMA" phase="1" state="yyyyyrrrrrrr" name="4+4"/>
    <tlsState time="135.00" id="2881" programID="NEMA" phase="0" state="rrrrrrrrrrrr" name="4+4"/>
    <tlsState time="136.00" id="2881" programID="NEMA" phase="1" state="srrrrGGrrGGG" name="2+6"/>
    <tlsState time="146.00" id="2881" programID="NEMA" phase="0" state="srrrryyrryyy" name="2+6"/>
    <tlsState time="150.00" id="2881" programID="NEMA" phase="1" state="rrrrrrrrrrrr" name="2+6"/>
    <tlsState time="151.00" id="2881" programID="NEMA" phase="0" state="GGGGGrrrrrrr" name="4+4"/>
    <tlsState time="162.00" id="2881" programID="NEMA" phase="1" state="yyyyyrrrrrrr" name="4+4"/>
    <tlsState time="167.00" id="2881" programID="NEMA" phase="0" state="rrrrrrrrrrrr" name="4+4"/>
    <tlsState time="168.00" id="2881" programID="NEMA" phase="1" state="srrrrGGrrGGG" name="2+6"/>
    <tlsState time="178.00" id="2881" programID="NEMA" phase="0" state="srrrryyrryyy" name="2+6"/>
    <tlsState time="182.00" id="2881" programID="NEMA" phase="1" state="rrrrrrrrrrrr" name="2+6"/>
    <tlsState time="183.00" id="2881" programID="NEMA" phase="0" state="GGGGGrrrrrrr" name="4+4"/>
    <tlsState time="193.00" id="2881" programID="NEMA" phase="1" state="yyyyyrrrrrrr" name="4+4"/>
    <tlsState time="198.00" id="2881" programID="NEMA" phase="0" state="rrrrrrrrrrrr" name="4+4"/>
    <tlsState time="199.00" id="2881" programID="NEMA" phase="1" state="srrrrGGrrGGG" name="2+6"/>
    <tlsState time="209.00" id="2881" programID="NEMA" phase="0" state="srrrryyrryyy" name="2+6"/>
    <tlsState time="213.00" id="2881" programID="NEMA" phase="1" state="rrrrrrrrrrrr" name="2+6"/>
    <tlsState time="214.00" id="2881" programID="NEMA" phase="0" state="GGGGGrrrrrrr" name="4+4"/>
    <tlsState time="225.00" id="2881" programID="NEMA" phase="1" state="yyyyyrrrrrrr" name="4+4"/>
    <tlsState time="230.00" id="2881" programID="NEMA" phase="0" state="rrrrrrrrrrrr" name="4+4"/>
    <tlsState time="231.00" id="2881" programID="NEMA" phase="1" state="srrrrGGrrGGG" name="2+6"/>
</tlsStates>
