<routes>

	<vehicle id="1" depart="0" route="1" departPos="stop">
        <stop lane="beg_0" duration="10" endPos="250"/>
    </vehicle>

</routes>
