<?xml version="1.0" encoding="UTF-8"?>

<!-- generated on 2023-05-26 13:47:38 by Eclipse SUMO netedit Version v1_17_0+0500-c7662b8
<configuration xmlns:xsi="http://www.w3.org/2001/XMLSchema-instance" xsi:noNamespaceSchemaLocation="http://sumo.dlr.de/xsd/netconvertConfiguration.xsd">

    <input>
        <sumo-net-file value="/localdata2/debug/florian_schnepf3/small/net.net.xml"/>
    </input>

    <processing>
        <offset.disable-normalization value="true"/>
    </processing>

    <junctions>
        <no-turnarounds value="true"/>
    </junctions>

    <netedit>
        <new-network value="false"/>
    </netedit>

</configuration>
-->

<nodes version="1.16" xmlns:xsi="http://www.w3.org/2001/XMLSchema-instance" xsi:noNamespaceSchemaLocation="http://sumo.dlr.de/xsd/nodes_file.xsd">
    <location netOffset="0.00,0.00" convBoundary="0.00,50.00,100.00,150.00" origBoundary="10000000000.00,10000000000.00,-10000000000.00,-10000000000.00" projParameter="!"/>

    <node id="J0" x="0.00" y="100.00" type="dead_end"/>
    <node id="J1" x="50.00" y="100.00" z="5.00" type="priority" radius="20.00"/>
    <node id="J2" x="100.00" y="100.00" z="10.00" type="dead_end"/>
    <node id="J3" x="50.00" y="150.00" type="dead_end"/>
    <node id="J4" x="50.00" y="50.00" type="dead_end"/>
</nodes>
