<routes>
	<vtype id="KRAUSS_DEFAULT" accel="2.6" decel="4.5" sigma="0" length="5" maxspeed="70"/>

	<vehicle id="0" depart="0">
		<route>beg middle end rend</route>
	</vehicle>
	<vehicle id="1" depart="20">
		<route>beg middle end rend</route>
	</vehicle>
	<vehicle id="2" depart="40">
		<route>beg middle end rend</route>
	</vehicle>
	<vehicle id="3" depart="60">
		<route>beg middle end rend</route>
	</vehicle>
	<vehicle id="4" depart="80">
		<route>beg middle end rend</route>
	</vehicle>
	<vehicle id="5" depart="100">
		<route>beg middle end rend</route>
	</vehicle>
	<vehicle id="6" depart="120">
		<route>beg middle end rend</route>
	</vehicle>
	<vehicle id="7" depart="140">
		<route>beg middle end rend</route>
	</vehicle>
	<vehicle id="8" depart="160">
		<route>beg middle end rend</route>
	</vehicle>
	<vehicle id="9" depart="180">
		<route>beg middle end rend</route>
	</vehicle>


</routes>
