<?xml version="1.0" encoding="UTF-8"?>

<additional xmlns:xsi="http://www.w3.org/2001/XMLSchema-instance" xsi:noNamespaceSchemaLocation="http://sumo.dlr.de/xsd/additional_file.xsd">
    <busStop id="busStop_gneE0_0_0" lane="gneE0_1" startPos="30.00" endPos="80.00" personCapacity="20"/>
</additional>
