<?xml version="1.0" encoding="UTF-8"?>

<!-- generated on 02/25/21 09:34:42 by Eclipse SUMO netedit Version 1.8.0
<configuration xmlns:xsi="http://www.w3.org/2001/XMLSchema-instance" xsi:noNamespaceSchemaLocation="http://sumo.dlr.de/xsd/netconvertConfiguration.xsd">

    <input>
        <sumo-net-file value="net.net.xml"/>
    </input>

    <output>
        <output-file value="net.net.xml"/>
    </output>

    <processing>
        <geometry.min-radius.fix.railways value="false"/>
        <geometry.max-grade.fix value="false"/>
        <offset.disable-normalization value="true"/>
        <lefthand value="false"/>
    </processing>

    <junctions>
        <no-turnarounds value="true"/>
        <junctions.corner-detail value="5"/>
        <junctions.limit-turn-speed value="5.5"/>
        <rectangular-lane-cut value="false"/>
    </junctions>

    <pedestrian>
        <walkingareas value="false"/>
    </pedestrian>

    <report>
        <aggregate-warnings value="5"/>
    </report>

</configuration>
-->

<net version="1.6" junctionCornerDetail="5" limitTurnSpeed="5.50" xmlns:xsi="http://www.w3.org/2001/XMLSchema-instance" xsi:noNamespaceSchemaLocation="http://sumo.dlr.de/xsd/net_file.xsd">

    <location netOffset="0.00,0.00" convBoundary="-285.64,-56.11,104.93,78.21" origBoundary="-10000000000.00,-10000000000.00,10000000000.00,10000000000.00" projParameter="!"/>

    <edge id=":p0_0" function="internal">
        <lane id=":p0_0_0" index="0" speed="3.65" length="4.67" shape="-285.64,79.39 -286.84,78.59 -287.24,77.79 -286.84,76.99 -285.64,76.19"/>
    </edge>
    <edge id=":p1_0" function="internal">
        <lane id=":p1_0_0" index="0" speed="13.89" length="9.43" shape="-21.78,79.81 -31.21,79.80"/>
    </edge>
    <edge id=":p1_1" function="internal">
        <lane id=":p1_1_0" index="0" disallow="pedestrian" speed="13.89" length="9.43" shape="-31.21,76.60 -21.78,76.61"/>
    </edge>
    <edge id=":p2_0" function="internal">
        <lane id=":p2_0_0" index="0" disallow="pedestrian" speed="3.65" length="4.67" shape="104.93,76.61 106.13,77.41 106.53,78.21 106.13,79.01 104.93,79.81"/>
    </edge>

    <edge id="-gneE0" from="p2" to="p1" priority="-1">
        <lane id="-gneE0_0" index="0" speed="13.89" length="126.71" shape="104.93,79.81 -21.78,79.81"/>
    </edge>
    <edge id="-gneE1" from="p3" to="p1" priority="-1">
        <lane id="-gneE1_0" index="0" allow="pedestrian" speed="13.89" length="127.59" shape="-23.40,-56.09 -24.86,71.49"/>
    </edge>
    <edge id="-gneE2" from="p0" to="p1" priority="-1">
        <lane id="-gneE2_0" index="0" speed="13.89" length="254.43" shape="-285.64,76.19 -31.21,76.60"/>
    </edge>
    <edge id="gneE0" from="p1" to="p2" priority="-1">
        <lane id="gneE0_0" index="0" allow="pedestrian" speed="13.89" length="126.71" width="2.00" shape="-21.78,74.01 104.93,74.01"/>
        <lane id="gneE0_1" index="1" disallow="pedestrian" speed="13.89" length="126.71" shape="-21.78,76.61 104.93,76.61"/>
    </edge>
    <edge id="gneE1" from="p1" to="p3" priority="-1">
        <lane id="gneE1_0" index="0" allow="pedestrian" speed="13.89" length="127.59" shape="-28.06,71.46 -26.60,-56.13"/>
    </edge>
    <edge id="gneE2" from="p1" to="p0" priority="-1">
        <lane id="gneE2_0" index="0" speed="13.89" length="254.43" shape="-31.21,79.80 -285.64,79.39"/>
    </edge>

    <junction id="p0" type="priority" x="-285.64" y="77.79" incLanes="gneE2_0" intLanes=":p0_0_0" shape="-285.64,77.79 -285.65,80.99 -285.64,77.79">
        <request index="0" response="0" foes="0" cont="0"/>
    </junction>
    <junction id="p1" type="priority" x="-26.54" y="78.21" incLanes="-gneE0_0 -gneE1_0 -gneE2_0" intLanes=":p1_0_0 :p1_1_0" shape="-21.78,81.41 -21.78,73.01 -22.61,72.84 -22.90,72.64 -23.11,72.34 -23.23,71.97 -23.26,71.51 -29.66,71.44 -29.85,73.42 -30.07,74.11 -30.37,74.61 -30.74,74.90 -31.20,75.00 -31.21,81.40">
        <request index="0" response="00" foes="00" cont="0"/>
        <request index="1" response="00" foes="00" cont="0"/>
    </junction>
    <junction id="p2" type="priority" x="104.93" y="78.21" incLanes="gneE0_0 gneE0_1" intLanes=":p2_0_0" shape="104.93,78.21 104.93,73.01 104.93,78.21">
        <request index="0" response="0" foes="0" cont="0"/>
    </junction>
    <junction id="p3" type="dead_end" x="-25.00" y="-56.11" incLanes="gneE1_0" intLanes="" shape="-25.00,-56.11 -28.20,-56.15 -25.00,-56.11"/>

    <connection from="-gneE0" to="gneE2" fromLane="0" toLane="0" via=":p1_0_0" dir="s" state="M"/>
    <connection from="-gneE2" to="gneE0" fromLane="0" toLane="1" via=":p1_1_0" dir="s" state="M"/>
    <connection from="gneE0" to="-gneE0" fromLane="1" toLane="0" via=":p2_0_0" dir="t" state="M"/>
    <connection from="gneE2" to="-gneE2" fromLane="0" toLane="0" via=":p0_0_0" dir="t" state="M"/>

    <connection from=":p0_0" to="-gneE2" fromLane="0" toLane="0" dir="t" state="M"/>
    <connection from=":p1_0" to="gneE2" fromLane="0" toLane="0" dir="s" state="M"/>
    <connection from=":p1_1" to="gneE0" fromLane="0" toLane="1" dir="s" state="M"/>
    <connection from=":p2_0" to="-gneE0" fromLane="0" toLane="0" dir="t" state="M"/>

</net>
