<?xml version="1.0" encoding="UTF-8"?>

<!-- generated on 2022-07-07 11:18:37.077428 by osmTaxiStop.py v1_13_0+1343-240e5d48340
  options: -f out.rou.xml -s data/osm_bbox.osm.xml.gz -o out.add.xml
-->

<additional xmlns:xsi="http://www.w3.org/2001/XMLSchema-instance" xsi:noNamespaceSchemaLocation="http://sumo.dlr.de/xsd/additional_file.xsd">
    <chargingStation id="chargingStation_0" name="Friedrichstadtpalast" lane="374734389#2_0" startPos="-15.79" endPos="36.71"/>
</additional>
