<?xml version="1.0" encoding="UTF-8"?>

<!-- generated on Sat Feb  8 23:15:01 2020 by Eclipse SUMO jtrrouter Version v1_4_0+0968-ae7250a8a4
<configuration xmlns:xsi="http://www.w3.org/2001/XMLSchema-instance" xsi:noNamespaceSchemaLocation="http://sumo.dlr.de/xsd/jtrrouterConfiguration.xsd">

    <input>
        <net-file value="net.net.xml"/>
        <route-files value="flows.tmp.xml"/>
        <turn-ratio-files value="input_turns.xml"/>
    </input>

    <output>
        <output-file value="out.rou.xml"/>
    </output>

    <processing>
        <no-internal-links value="true"/>
        <accept-all-destinations value="true"/>
        <sources-are-sinks value="true"/>
        <discount-sources value="true"/>
    </processing>

</configuration>
-->

<routes xmlns:xsi="http://www.w3.org/2001/XMLSchema-instance" xsi:noNamespaceSchemaLocation="http://sumo.dlr.de/xsd/routes_file.xsd">
    <vehicle id="-109.0" depart="0.00">
        <route edges="-109 -109.80.00 23 23.80.00 31 31.80.00 -31 -31.80.00 -23 -23.80.00 -11 -11.80.00 3 3.180.00 27 27.80.00 43 68 -45 -45.80.00 -27 -27.80.00 -3 -3.180.00 11 11.80.00 109 109.80.00 123 123.121.42 -123 -123.121.42 -120 -120.180.00 -64 -64.80.00 58 -37 -37.80.00 37 -58 -58.121.42 64 64.80.00 120 120.180.00 131 131.180.00 152 -152 -152.80.00 144 144.121.42 -15 -15.180.00 5 -5 -5.80.00 15 15.180.00 -144 -144.121.42 -131 -131.180.00"/>
    </vehicle>
    <vehicle id="-109.80.00.0" depart="0.00">
        <route edges="-109.80.00 -11 -11.80.00 3 3.180.00 -3 -3.180.00 5 -5 -5.80.00 11 11.80.00 109 109.80.00 -109"/>
    </vehicle>
    <vehicle id="-11.0" depart="0.00">
        <route edges="-11 -11.80.00 3 3.180.00 27 27.80.00 45 -68 -43 -43.80.00 -27 -27.80.00 -3 -3.180.00 11 11.80.00 109 109.80.00 -109 -109.80.00 23 23.80.00 31 31.80.00 64 64.80.00 120 120.180.00 131 131.180.00 144 144.121.42 -15 -15.180.00 15 15.180.00 -144 -144.121.42 152 -152 -152.80.00 -131 -131.180.00 -120 -120.180.00 -64 -64.80.00 -31 -31.80.00 -23 -23.80.00"/>
    </vehicle>
    <vehicle id="-11.80.00.0" depart="0.00">
        <route edges="-11.80.00 5 -5 -5.80.00 11 11.80.00 109 109.80.00 123 123.121.42 -144 -144.121.42 152 -152 -152.80.00 148 -148 -148.80.00 144 144.121.42 -15 -15.180.00 3 3.180.00 27 27.80.00 43 68 -45 -45.80.00 -27 -27.80.00 -3 -3.180.00 15 15.180.00 -123 -123.121.42 131 131.180.00 -131 -131.180.00 -109 -109.80.00 -11"/>
    </vehicle>
    <vehicle id="-120.0" depart="0.00">
        <route edges="-120 -120.180.00 -64 -64.80.00 -31 -31.80.00 -23 -23.80.00 109 109.80.00 123 123.121.42 -15 -15.180.00 11 11.80.00 23 23.80.00 37 -58 -58.121.42 64 64.80.00 120 120.180.00 131 131.180.00 152 -152 -152.80.00 -131 -131.180.00 -109 -109.80.00 -11 -11.80.00 3 3.180.00 27 27.80.00 45 -68 -43 -43.80.00 -27 -27.80.00 -3 -3.180.00 15 15.180.00 -144 -144.121.42 144 144.121.42 -123 -123.121.42"/>
    </vehicle>
    <vehicle id="-120.180.00.0" depart="0.00">
        <route edges="-120.180.00 -75 -75.121.42 92 -92 -92.180.00 -60 -60.80.00 -31 -31.80.00 -23 -23.80.00 -11 -11.80.00 3 3.180.00 -71 -55 -55.80.00 -27 -27.80.00 27 27.80.00 43 68 -45 -45.80.00 55 71 71.121.42 -3 -3.180.00 15 15.180.00 -144 -144.121.42 152 -152 -152.80.00 -131 -131.180.00 -120"/>
    </vehicle>
    <vehicle id="-123.0" depart="0.00">
        <route edges="-123 -123.121.42 131 131.180.00 148 -148 -148.80.00 144 144.121.42 -15 -15.180.00 3 3.180.00 27 27.80.00 45 -68 -43 -43.80.00 -27 -27.80.00 -3 -3.180.00 11 11.80.00 23 23.80.00 31 31.80.00 64 64.80.00 120 120.180.00 123 123.121.42 -144 -144.121.42 -131 -131.180.00 -120 -120.180.00 -64 -64.80.00 58 -37 -37.80.00 37 -58 -58.121.42 -31 -31.80.00 -23 -23.80.00 -11 -11.80.00 5 -5 -5.80.00 15 15.180.00"/>
    </vehicle>
    <vehicle id="-123.121.42.0" depart="0.00">
        <route edges="-123.121.42 -109 -109.80.00 23 23.80.00 31 31.80.00 60 60.80.00 -60 -60.80.00 -31 -31.80.00 -23 -23.80.00 109 109.80.00 -120 -120.180.00 -75 -75.121.42 92 -92 -92.180.00 75 75.121.42 120 120.180.00 131 131.180.00 144 144.121.42 -15 -15.180.00 3 3.180.00 -3 -3.180.00 15 15.180.00 -123"/>
    </vehicle>
    <vehicle id="-131.0" depart="0.00">
        <route edges="-131 -131.180.00 -109 -109.80.00 -11 -11.80.00 3 3.180.00 -3 -3.180.00 11 11.80.00 23 23.80.00 31 31.80.00 60 60.80.00 75 75.121.42 120 120.180.00 123 123.121.42 -144 -144.121.42 144 144.121.42 -15 -15.180.00 15 15.180.00 -123 -123.121.42 -120 -120.180.00 -64 -64.80.00 -31 -31.80.00 -23 -23.80.00 109 109.80.00 131 131.180.00 152 -152 -152.80.00 148 -148 -148.80.00"/>
    </vehicle>
    <vehicle id="-131.180.00.0" depart="0.00">
        <route edges="-131.180.00 123 123.121.42 -144 -144.121.42 144 144.121.42 -123 -123.121.42 -109 -109.80.00 109 109.80.00 -120 -120.180.00 -75 -75.121.42 -60 -60.80.00 -31 -31.80.00 -23 -23.80.00 -11 -11.80.00 5 -5 -5.80.00 11 11.80.00 23 23.80.00 31 31.80.00 60 60.80.00 75 75.121.42 120 120.180.00 131 131.180.00 -131"/>
    </vehicle>
    <vehicle id="-144.0" depart="0.00">
        <route edges="-144 -144.121.42 144 144.121.42 -123 -123.121.42 -120 -120.180.00 -64 -64.80.00 64 64.80.00 120 120.180.00 131 131.180.00 152 -152 -152.80.00 148 -148 -148.80.00 -131 -131.180.00 -109 -109.80.00 23 23.80.00 31 31.80.00 60 60.80.00 75 75.121.42 -75 -75.121.42 -60 -60.80.00 -31 -31.80.00 -23 -23.80.00 109 109.80.00 123 123.121.42 -15 -15.180.00 3 3.180.00 -3 -3.180.00 11 11.80.00 -11 -11.80.00 15 15.180.00"/>
    </vehicle>
    <vehicle id="-144.121.42.0" depart="0.00">
        <route edges="-144.121.42 144 144.121.42 -144"/>
    </vehicle>
    <vehicle id="-148.0" depart="0.00">
        <route edges="-148 -148.80.00 144 144.121.42 -123 -123.121.42 131 131.180.00 152 -152 -152.80.00 148"/>
    </vehicle>
    <vehicle id="-148.80.00.0" depart="0.00">
        <route edges="-148.80.00 -131 -131.180.00 -109 -109.80.00 -11 -11.80.00 3 3.180.00 27 27.80.00 43 68 -45 -45.80.00 -27 -27.80.00 -3 -3.180.00 15 15.180.00 -15 -15.180.00 11 11.80.00 23 23.80.00 31 31.80.00 60 60.80.00 -60 -60.80.00 -31 -31.80.00 -23 -23.80.00 109 109.80.00 -120 -120.180.00 -75 -75.121.42 92 -92 -92.180.00 75 75.121.42 120 120.180.00 123 123.121.42 -144 -144.121.42 148"/>
    </vehicle>
    <vehicle id="-15.0" depart="0.00">
        <route edges="-15 -15.180.00 5 -5 -5.80.00 11 11.80.00 23 23.80.00 37 -58 -58.121.42 -31 -31.80.00 -23 -23.80.00 -11 -11.80.00 3 3.180.00 -3 -3.180.00 15 15.180.00 -144 -144.121.42 152"/>
    </vehicle>
    <vehicle id="-15.180.00.0" depart="0.00">
        <route edges="-15.180.00 3 3.180.00 27 27.80.00 43 68 -45 -45.80.00 -27 -27.80.00 -3 -3.180.00 11 11.80.00 23 23.80.00 31 31.80.00 -31 -31.80.00 -23 -23.80.00 109 109.80.00 -109 -109.80.00 -11 -11.80.00 5 -5 -5.80.00 15 15.180.00 -144 -144.121.42 -131 -131.180.00 -120 -120.180.00 -75 -75.121.42 -60 -60.80.00 58 -37 -37.80.00 37 -58 -58.121.42 64 64.80.00 120 120.180.00 131 131.180.00 152"/>
    </vehicle>
    <vehicle id="-152.0" depart="0.00">
        <route edges="-152 -152.80.00 -131 -131.180.00 -109 -109.80.00 -11 -11.80.00 3 3.180.00 27 27.80.00 43 68 -45 -45.80.00 -27 -27.80.00 -3 -3.180.00 15 15.180.00 -15 -15.180.00 11 11.80.00 109 109.80.00 123 123.121.42 -123 -123.121.42 -120 -120.180.00 -75 -75.121.42 -60 -60.80.00 58 -37 -37.80.00 -23 -23.80.00 23 23.80.00 31 31.80.00 -31 -31.80.00 37 -58 -58.121.42 64 64.80.00 -64 -64.80.00 60 60.80.00 75 75.121.42 120 120.180.00 131 131.180.00 144 144.121.42 -144 -144.121.42 152"/>
    </vehicle>
    <vehicle id="-23.0" depart="0.00">
        <route edges="-23 -23.80.00 -11 -11.80.00 15 15.180.00 -144 -144.121.42 144 144.121.42 -15 -15.180.00 11 11.80.00 109 109.80.00 131 131.180.00 152"/>
    </vehicle>
    <vehicle id="-23.80.00.0" depart="0.00">
        <route edges="-23.80.00 -11 -11.80.00 3 3.180.00 27 27.80.00 43 68 -45 -45.80.00 -27 -27.80.00 -3 -3.180.00 15 15.180.00 -15 -15.180.00 11 11.80.00 23 23.80.00 31 31.80.00 64 64.80.00 120 120.180.00 131 131.180.00 -131 -131.180.00 -109 -109.80.00 109 109.80.00 -120 -120.180.00 -64 -64.80.00 -31 -31.80.00 -23"/>
    </vehicle>
    <vehicle id="-27.0" depart="0.00">
        <route edges="-27 -27.80.00 27 27.80.00 43 68 -45 -45.80.00 55 71 71.121.42 -71 -55 -55.80.00 45 -68 -43 -43.80.00"/>
    </vehicle>
    <vehicle id="-27.80.00.0" depart="0.00">
        <route edges="-27.80.00 -3 -3.180.00 11 11.80.00 23 23.80.00 31 31.80.00 -31 -31.80.00 -23 -23.80.00 -11 -11.80.00 5 -5 -5.80.00 15 15.180.00 -144 -144.121.42 144 144.121.42 -15 -15.180.00 3 3.180.00 27 27.80.00 55 71 71.121.42 -71 -55 -55.80.00 -27"/>
    </vehicle>
    <vehicle id="-3.0" depart="0.00">
        <route edges="-3 -3.180.00 11 11.80.00 23 23.80.00 31 31.80.00 60 60.80.00 92 -92 -92.180.00 -60 -60.80.00 -31 -31.80.00 -23 -23.80.00 109 109.80.00 123 123.121.42 -144 -144.121.42 144 144.121.42 -15 -15.180.00 3 3.180.00 27 27.80.00 45 -68 -43 -43.80.00 -27 -27.80.00 -71 -55 -55.80.00 43 68 -45 -45.80.00 55 71 71.121.42"/>
    </vehicle>
    <vehicle id="-3.180.00.0" depart="0.00">
        <route edges="-3.180.00 11 11.80.00 23 23.80.00 31 31.80.00 60 60.80.00 -60 -60.80.00 -31 -31.80.00 37 -58 -58.121.42 64 64.80.00 120 120.180.00 -109 -109.80.00 -11 -11.80.00 5 -5 -5.80.00 15 15.180.00 -123 -123.121.42 -120 -120.180.00 -64 -64.80.00 58 -37 -37.80.00 -23 -23.80.00 109 109.80.00 123 123.121.42 -15 -15.180.00 3 3.180.00 27 27.80.00 55 71 71.121.42 -3"/>
    </vehicle>
    <vehicle id="-31.0" depart="0.00">
        <route edges="-31 -31.80.00 -23 -23.80.00 23 23.80.00 31 31.80.00 60 60.80.00 75 75.121.42 120 120.180.00 131 131.180.00 144 144.121.42 -123 -123.121.42 -120 -120.180.00 -75 -75.121.42 92 -92 -92.180.00 -60 -60.80.00 58 -37 -37.80.00 37 -58 -58.121.42 64 64.80.00 -64 -64.80.00"/>
    </vehicle>
    <vehicle id="-31.80.00.0" depart="0.00">
        <route edges="-31.80.00 37 -58 -58.121.42 -31"/>
    </vehicle>
    <vehicle id="-37.0" depart="0.00">
        <route edges="-37 -37.80.00 -23 -23.80.00 -11 -11.80.00 3 3.180.00 -3 -3.180.00 11 11.80.00 23 23.80.00 37 -58 -58.121.42 64 64.80.00 120 120.180.00 123 123.121.42 -123 -123.121.42 -120 -120.180.00 -75 -75.121.42 92 -92 -92.180.00 -60 -60.80.00 -31 -31.80.00 31 31.80.00 60 60.80.00 75 75.121.42 -64 -64.80.00 58"/>
    </vehicle>
    <vehicle id="-37.80.00.0" depart="0.00">
        <route edges="-37.80.00 -23 -23.80.00 -11 -11.80.00 3 3.180.00 27 27.80.00 45 -68 -43 -43.80.00 -27 -27.80.00 -3 -3.180.00 11 11.80.00 23 23.80.00 31 31.80.00 60 60.80.00 -60 -60.80.00 58 -37"/>
    </vehicle>
    <vehicle id="-43.0" depart="0.00">
        <route edges="-43 -43.80.00 -27 -27.80.00 -3 -3.180.00 3 3.180.00 27 27.80.00 43 68 -45 -45.80.00 55 71 71.121.42 -71 -55 -55.80.00 45 -68"/>
    </vehicle>
    <vehicle id="-43.80.00.0" depart="0.00">
        <route edges="-43.80.00 -27 -27.80.00 -3 -3.180.00 11 11.80.00 109 109.80.00 123 123.121.42 -144 -144.121.42 152"/>
    </vehicle>
    <vehicle id="-45.0" depart="0.00">
        <route edges="-45 -45.80.00 -27 -27.80.00 -3 -3.180.00 15 15.180.00 -15 -15.180.00 3 3.180.00 -71 -55 -55.80.00 45 -68 -43 -43.80.00 43 68"/>
    </vehicle>
    <vehicle id="-45.80.00.0" depart="0.00">
        <route edges="-45.80.00 -27 -27.80.00 -71 -55 -55.80.00 45 -68 -43 -43.80.00 55 71 71.121.42 27 27.80.00 43 68 -45"/>
    </vehicle>
    <vehicle id="-5.0" depart="0.00">
        <route edges="-5 -5.80.00 11 11.80.00 23 23.80.00 -23 -23.80.00 109 109.80.00 -109 -109.80.00 -11 -11.80.00 3 3.180.00 27 27.80.00 43 68 -45 -45.80.00 -27 -27.80.00 -3 -3.180.00 15 15.180.00 -144 -144.121.42 144 144.121.42 -15 -15.180.00 5"/>
    </vehicle>
    <vehicle id="-5.80.00.0" depart="0.00">
        <route edges="-5.80.00 11 11.80.00 23 23.80.00 -23 -23.80.00 109 109.80.00 123 123.121.42 -123 -123.121.42 -109 -109.80.00 -11 -11.80.00 3 3.180.00 27 27.80.00 43 68 -45 -45.80.00 -27 -27.80.00 -3 -3.180.00 15 15.180.00 -144 -144.121.42 144 144.121.42 -15 -15.180.00 5 -5"/>
    </vehicle>
    <vehicle id="-55.0" depart="0.00">
        <route edges="-55 -55.80.00 -27 -27.80.00 -3 -3.180.00 11 11.80.00 109 109.80.00 123 123.121.42 -144 -144.121.42 -131 -131.180.00 -109 -109.80.00 23 23.80.00 31 31.80.00 -31 -31.80.00 -23 -23.80.00 -11 -11.80.00 3 3.180.00 27 27.80.00 43 68 -45 -45.80.00 55 71 71.121.42 -71"/>
    </vehicle>
    <vehicle id="-55.80.00.0" depart="0.00">
        <route edges="-55.80.00 -27 -27.80.00 -3 -3.180.00 15 15.180.00 -15 -15.180.00 3 3.180.00 27 27.80.00 55 71 71.121.42 -71 -55"/>
    </vehicle>
    <vehicle id="-58.0" depart="0.00">
        <route edges="-58 -58.121.42 -31 -31.80.00 -23 -23.80.00 109 109.80.00 -109 -109.80.00 -11 -11.80.00 3 3.180.00 27 27.80.00 43 68 -45 -45.80.00 -27 -27.80.00 -3 -3.180.00 11 11.80.00 23 23.80.00 31 31.80.00 64 64.80.00 120 120.180.00 123 123.121.42 -144 -144.121.42 144 144.121.42 -15 -15.180.00 15 15.180.00 -123 -123.121.42 -120 -120.180.00 -75 -75.121.42 75 75.121.42 -64 -64.80.00 58 -37 -37.80.00 37"/>
    </vehicle>
    <vehicle id="-58.121.42.0" depart="0.00">
        <route edges="-58.121.42 60 60.80.00 -60 -60.80.00 -31 -31.80.00 -23 -23.80.00 109 109.80.00 131 131.180.00 144 144.121.42 -15 -15.180.00 3 3.180.00 -3 -3.180.00 5 -5 -5.80.00 11 11.80.00 23 23.80.00 31 31.80.00 64 64.80.00 120 120.180.00 123 123.121.42 -123 -123.121.42 -109 -109.80.00 -11 -11.80.00 15 15.180.00 -144 -144.121.42 152"/>
    </vehicle>
    <vehicle id="-60.0" depart="0.00">
        <route edges="-60 -60.80.00 -31 -31.80.00 -23 -23.80.00 109 109.80.00 -109 -109.80.00 -11 -11.80.00 3 3.180.00 -71 -55 -55.80.00 -27 -27.80.00 -3 -3.180.00 11 11.80.00 23 23.80.00 31 31.80.00 60 60.80.00 75 75.121.42 -64 -64.80.00 58 -37 -37.80.00 37 -58 -58.121.42"/>
    </vehicle>
    <vehicle id="-60.80.00.0" depart="0.00">
        <route edges="-60.80.00 -31 -31.80.00 -23 -23.80.00 109 109.80.00 123 123.121.42 -123 -123.121.42 -109 -109.80.00 -11 -11.80.00 5 -5 -5.80.00 15 15.180.00 -144 -144.121.42 148"/>
    </vehicle>
    <vehicle id="-64.0" depart="0.00">
        <route edges="-64 -64.80.00 -31 -31.80.00 -23 -23.80.00 23 23.80.00 31 31.80.00 60 60.80.00 92"/>
    </vehicle>
    <vehicle id="-64.80.00.0" depart="0.00">
        <route edges="-64.80.00 -31 -31.80.00 -23 -23.80.00 -11 -11.80.00 5 -5 -5.80.00 11 11.80.00 23 23.80.00 31 31.80.00 64 64.80.00 -64"/>
    </vehicle>
    <vehicle id="-68.0" depart="0.00">
        <route edges="-68 -43 -43.80.00 -27 -27.80.00 27 27.80.00 45"/>
    </vehicle>
    <vehicle id="-71.0" depart="0.00">
        <route edges="-71 -55 -55.80.00 -27 -27.80.00 -3 -3.180.00 11 11.80.00 23 23.80.00 -23 -23.80.00 -11 -11.80.00 3 3.180.00 27 27.80.00 43 68 -45 -45.80.00 55 71 71.121.42"/>
    </vehicle>
    <vehicle id="-75.0" depart="0.00">
        <route edges="-75 -75.121.42 -60 -60.80.00 -31 -31.80.00 -23 -23.80.00 -11 -11.80.00 15 15.180.00 -144 -144.121.42 -131 -131.180.00 -109 -109.80.00 23 23.80.00 31 31.80.00 64 64.80.00 -64 -64.80.00 60 60.80.00 75 75.121.42 120 120.180.00 123 123.121.42 -15 -15.180.00 11 11.80.00 109 109.80.00 -120 -120.180.00"/>
    </vehicle>
    <vehicle id="-75.121.42.0" depart="0.00">
        <route edges="-75.121.42 -60 -60.80.00 -31 -31.80.00 -23 -23.80.00 23 23.80.00 31 31.80.00 58 -37 -37.80.00 37 -58 -58.121.42"/>
    </vehicle>
    <vehicle id="-79.0" depart="0.00">
        <route edges="-79 -79.80.00 -60 -60.80.00 -31 -31.80.00 -23 -23.80.00 -11 -11.80.00 15 15.180.00 -15 -15.180.00 11 11.80.00 23 23.80.00 31 31.80.00 64 64.80.00 -64 -64.80.00 58 -37 -37.80.00 37 -58"/>
    </vehicle>
    <vehicle id="-79.80.00.0" depart="0.00">
        <route edges="-79.80.00 -60 -60.80.00 -31 -31.80.00 -23 -23.80.00 -11 -11.80.00 5 -5 -5.80.00 15 15.180.00 -15 -15.180.00 3 3.180.00 -3 -3.180.00 11 11.80.00 109 109.80.00 -109 -109.80.00 23 23.80.00 31 31.80.00 64 64.80.00 120 120.180.00 131 131.180.00 152"/>
    </vehicle>
    <vehicle id="-92.0" depart="0.00">
        <route edges="-92 -92.180.00 -60 -60.80.00 -31 -31.80.00 -23 -23.80.00 23 23.80.00 31 31.80.00 60 60.80.00 75 75.121.42 120 120.180.00 -109 -109.80.00 -11 -11.80.00 5 -5 -5.80.00 15 15.180.00 -15 -15.180.00 3 3.180.00 27 27.80.00 45 -68 -43 -43.80.00 -27 -27.80.00 -3 -3.180.00 11 11.80.00 109 109.80.00 -120 -120.180.00 -64 -64.80.00 64 64.80.00 -75 -75.121.42 92"/>
    </vehicle>
    <vehicle id="-92.180.00.0" depart="0.00">
        <route edges="-92.180.00 -60 -60.80.00 -31 -31.80.00 -23 -23.80.00 -11 -11.80.00 3 3.180.00 27 27.80.00 43 68 -45 -45.80.00 -27 -27.80.00 -3 -3.180.00 11 11.80.00 23 23.80.00 31 31.80.00 64 64.80.00 120 120.180.00 131 131.180.00 144 144.121.42 -144 -144.121.42 152"/>
    </vehicle>
    <vehicle id="109.0" depart="0.00">
        <route edges="109 109.80.00 131 131.180.00 -131 -131.180.00 -109 -109.80.00 23 23.80.00 31 31.80.00 58"/>
    </vehicle>
    <vehicle id="109.80.00.0" depart="0.00">
        <route edges="109.80.00 123 123.121.42 -123 -123.121.42 -109 -109.80.00 109"/>
    </vehicle>
    <vehicle id="11.0" depart="0.00">
        <route edges="11 11.80.00 23 23.80.00 31 31.80.00 64 64.80.00 120 120.180.00 -120 -120.180.00 -64 -64.80.00 -31 -31.80.00 -23 -23.80.00 -11 -11.80.00 5"/>
    </vehicle>
    <vehicle id="11.80.00.0" depart="0.00">
        <route edges="11.80.00 23 23.80.00 31 31.80.00 60 60.80.00 -60 -60.80.00 -31 -31.80.00 -23 -23.80.00 -11 -11.80.00 15 15.180.00 -15 -15.180.00 3 3.180.00 27 27.80.00 -27 -27.80.00 -3 -3.180.00 11"/>
    </vehicle>
    <vehicle id="120.0" depart="0.00">
        <route edges="120 120.180.00 131 131.180.00 144 144.121.42 -15 -15.180.00 15 15.180.00 -144 -144.121.42 148"/>
    </vehicle>
    <vehicle id="120.180.00.0" depart="0.00">
        <route edges="120.180.00 123 123.121.42 -144 -144.121.42 -131 -131.180.00 -120 -120.180.00 -64 -64.80.00 -31 -31.80.00 37 -58"/>
    </vehicle>
    <vehicle id="123.0" depart="0.00">
        <route edges="123 123.121.42 -15 -15.180.00 3 3.180.00 -71 -55 -55.80.00 -27 -27.80.00 -3 -3.180.00 11 11.80.00 23 23.80.00 31 31.80.00 64 64.80.00 -64 -64.80.00 58"/>
    </vehicle>
    <vehicle id="123.121.42.0" depart="0.00">
        <route edges="123.121.42 -144 -144.121.42 -131 -131.180.00 -120 -120.180.00 -75 -75.121.42 -60 -60.80.00 58"/>
    </vehicle>
    <vehicle id="131.0" depart="0.00">
        <route edges="131 131.180.00 148"/>
    </vehicle>
    <vehicle id="131.180.00.0" depart="0.00">
        <route edges="131.180.00 -131 -131.180.00 -120 -120.180.00 -75 -75.121.42 75 75.121.42 -64 -64.80.00 64 64.80.00 120 120.180.00 -109 -109.80.00 109 109.80.00 123 123.121.42 -144 -144.121.42 144 144.121.42 -15 -15.180.00"/>
    </vehicle>
    <vehicle id="144.0" depart="0.00">
        <route edges="144 144.121.42 -144"/>
    </vehicle>
    <vehicle id="144.121.42.0" depart="0.00">
        <route edges="144.121.42 -15 -15.180.00"/>
    </vehicle>
    <vehicle id="15.0" depart="0.00">
        <route edges="15 15.180.00 -144"/>
    </vehicle>
    <vehicle id="15.180.00.0" depart="0.00">
        <route edges="15.180.00 -15 -15.180.00"/>
    </vehicle>
    <vehicle id="23.0" depart="0.00">
        <route edges="23 23.80.00 31 31.80.00 64 64.80.00 120 120.180.00 -109 -109.80.00 -11 -11.80.00 15 15.180.00 -144"/>
    </vehicle>
    <vehicle id="23.80.00.0" depart="0.00">
        <route edges="23.80.00 31 31.80.00 58"/>
    </vehicle>
    <vehicle id="27.0" depart="0.00">
        <route edges="27 27.80.00 43 68 -45 -45.80.00 -27 -27.80.00 -3 -3.180.00 3 3.180.00 -71 -55 -55.80.00 45 -68 -43 -43.80.00 55 71 71.121.42"/>
    </vehicle>
    <vehicle id="27.80.00.0" depart="0.00">
        <route edges="27.80.00 43 68 -45 -45.80.00 -27 -27.80.00 -3 -3.180.00 11 11.80.00 -11 -11.80.00 3 3.180.00 27"/>
    </vehicle>
    <vehicle id="3.0" depart="0.00">
        <route edges="3 3.180.00 27 27.80.00 43 68 -45 -45.80.00 -27 -27.80.00 -3 -3.180.00 11 11.80.00 109 109.80.00 131 131.180.00 152"/>
    </vehicle>
    <vehicle id="3.180.00.0" depart="0.00">
        <route edges="3.180.00 27 27.80.00 43 68 -45 -45.80.00 -27 -27.80.00 -3 -3.180.00 15 15.180.00 -123 -123.121.42 -109 -109.80.00 23 23.80.00 31 31.80.00 -31 -31.80.00 -23 -23.80.00 -11 -11.80.00 3"/>
    </vehicle>
    <vehicle id="31.0" depart="0.00">
        <route edges="31 31.80.00 60 60.80.00 -60 -60.80.00 -31 -31.80.00 -23 -23.80.00 23 23.80.00 37 -58"/>
    </vehicle>
    <vehicle id="31.80.00.0" depart="0.00">
        <route edges="31.80.00 60 60.80.00 92"/>
    </vehicle>
    <vehicle id="37.0" depart="0.00">
        <route edges="37 -58"/>
    </vehicle>
    <vehicle id="43.0" depart="0.00">
        <route edges="43 68 -45 -45.80.00 -27 -27.80.00 27 27.80.00 55 71 71.121.42 -3 -3.180.00 11 11.80.00 23 23.80.00 31 31.80.00 64 64.80.00 120 120.180.00 123 123.121.42 -15 -15.180.00"/>
    </vehicle>
    <vehicle id="45.0" depart="0.00">
        <route edges="45 -68 -43 -43.80.00 -27 -27.80.00 -3 -3.180.00 11 11.80.00 -11 -11.80.00 3 3.180.00 27 27.80.00 43 68 -45 -45.80.00 55 71 71.121.42 -71 -55 -55.80.00"/>
    </vehicle>
    <vehicle id="55.0" depart="0.00">
        <route edges="55 71 71.121.42 -3 -3.180.00 11 11.80.00 23 23.80.00 31 31.80.00 58"/>
    </vehicle>
    <vehicle id="60.0" depart="0.00">
        <route edges="60 60.80.00 75 75.121.42 120 120.180.00 131 131.180.00 -131 -131.180.00 -109 -109.80.00 109 109.80.00 -120 -120.180.00 -75 -75.121.42 -60 -60.80.00 -31 -31.80.00 -23 -23.80.00 -11 -11.80.00 3 3.180.00 27 27.80.00 -27 -27.80.00 -3 -3.180.00 11 11.80.00 23 23.80.00 37 -58"/>
    </vehicle>
    <vehicle id="60.80.00.0" depart="0.00">
        <route edges="60.80.00 75 75.121.42 -64 -64.80.00 -31 -31.80.00 -23 -23.80.00 -11 -11.80.00 3 3.180.00 27 27.80.00 45 -68 -43 -43.80.00 -27 -27.80.00 -3 -3.180.00 11 11.80.00 23 23.80.00 31 31.80.00 60"/>
    </vehicle>
    <vehicle id="64.0" depart="0.00">
        <route edges="64 64.80.00 -64 -64.80.00 -31 -31.80.00 -23 -23.80.00 -11 -11.80.00 3 3.180.00 27 27.80.00 45 -68 -43 -43.80.00 -27 -27.80.00 -3 -3.180.00 11 11.80.00 23 23.80.00 31 31.80.00 60 60.80.00 -60 -60.80.00 58"/>
    </vehicle>
    <vehicle id="64.80.00.0" depart="0.00">
        <route edges="64.80.00 120 120.180.00 123 123.121.42 -144"/>
    </vehicle>
    <vehicle id="68.0" depart="0.00">
        <route edges="68 -45 -45.80.00 -27 -27.80.00 -3 -3.180.00 11 11.80.00 23 23.80.00 31 31.80.00 58"/>
    </vehicle>
    <vehicle id="71.0" depart="0.00">
        <route edges="71 71.121.42 -3 -3.180.00 15 15.180.00 -123 -123.121.42 -109 -109.80.00 23 23.80.00 -23 -23.80.00 109 109.80.00 131 131.180.00 144 144.121.42 -15 -15.180.00"/>
    </vehicle>
    <vehicle id="71.121.42.0" depart="0.00">
        <route edges="71.121.42 -3 -3.180.00 11 11.80.00 109 109.80.00 123 123.121.42 -123 -123.121.42 131 131.180.00 -131 -131.180.00 -120 -120.180.00 -75 -75.121.42 92"/>
    </vehicle>
    <vehicle id="75.0" depart="0.00">
        <route edges="75 75.121.42 120 120.180.00 131 131.180.00 -131 -131.180.00 -109 -109.80.00 -11 -11.80.00 3 3.180.00 27 27.80.00 43 68 -45 -45.80.00 -27 -27.80.00 -3 -3.180.00 11 11.80.00 23 23.80.00 -23 -23.80.00 109 109.80.00 -120 -120.180.00 -64 -64.80.00 -31 -31.80.00 37 -58"/>
    </vehicle>
    <vehicle id="75.121.42.0" depart="0.00">
        <route edges="75.121.42 120 120.180.00 131 131.180.00 -131 -131.180.00 -109 -109.80.00 109 109.80.00 123 123.121.42 -123 -123.121.42 -120 -120.180.00 -75 -75.121.42 -60 -60.80.00 60 60.80.00 75"/>
    </vehicle>
    <vehicle id="79.0" depart="0.00">
        <route edges="79 -79 -79.80.00 -60 -60.80.00 -31 -31.80.00 -23 -23.80.00 -11 -11.80.00 3 3.180.00 27 27.80.00 43 68 -45"/>
    </vehicle>
    <vehicle id="-3.180.00.1" depart="4.38">
        <route edges="-3.180.00 11 11.80.00 23 23.80.00 31 31.80.00 60 60.80.00 75 75.121.42 120 120.180.00 131 131.180.00 152"/>
    </vehicle>
    <vehicle id="-3.1" depart="4.46">
        <route edges="-3 -3.180.00 11 11.80.00 23 23.80.00 37 -58"/>
    </vehicle>
    <vehicle id="23.80.00.1" depart="4.75">
        <route edges="23.80.00 31 31.80.00 60 60.80.00 75 75.121.42 120 120.180.00 -109 -109.80.00 -11 -11.80.00 3 3.180.00 27 27.80.00 -27 -27.80.00 -3 -3.180.00 11 11.80.00 23"/>
    </vehicle>
    <vehicle id="23.1" depart="4.80">
        <route edges="23 23.80.00 31 31.80.00 64 64.80.00 120 120.180.00 123 123.121.42 -123 -123.121.42 -120 -120.180.00 -75 -75.121.42 -60 -60.80.00 -31 -31.80.00 -23 -23.80.00 -11 -11.80.00 15 15.180.00 -15 -15.180.00"/>
    </vehicle>
    <vehicle id="-11.80.00.1" depart="4.99">
        <route edges="-11.80.00 3 3.180.00 -3 -3.180.00 15 15.180.00 -15 -15.180.00"/>
    </vehicle>
    <vehicle id="3.180.00.1" depart="4.99">
        <route edges="3.180.00 27 27.80.00 43 68 -45"/>
    </vehicle>
    <vehicle id="3.1" depart="5.04">
        <route edges="3 3.180.00 27 27.80.00 55 71 71.121.42 -71 -55 -55.80.00 -27 -27.80.00 -3 -3.180.00 11 11.80.00 23 23.80.00 31 31.80.00 64 64.80.00 120 120.180.00 -109 -109.80.00 -11 -11.80.00 15 15.180.00 -144"/>
    </vehicle>
    <vehicle id="11.1" depart="5.14">
        <route edges="11 11.80.00 -11 -11.80.00 3 3.180.00 27 27.80.00 55 71"/>
    </vehicle>
    <vehicle id="-11.1" depart="5.20">
        <route edges="-11 -11.80.00 3 3.180.00 27 27.80.00 45 -68 -43 -43.80.00 -27 -27.80.00 -3 -3.180.00 11 11.80.00 23 23.80.00 37"/>
    </vehicle>
    <vehicle id="11.80.00.1" depart="5.20">
        <route edges="11.80.00 23 23.80.00 31 31.80.00 -31 -31.80.00 37"/>
    </vehicle>
    <vehicle id="-27.80.00.1" depart="5.25">
        <route edges="-27.80.00 -3 -3.180.00 11 11.80.00 -11 -11.80.00 5"/>
    </vehicle>
    <vehicle id="-23.1" depart="5.42">
        <route edges="-23 -23.80.00 -11 -11.80.00 15 15.180.00"/>
    </vehicle>
    <vehicle id="-23.80.00.1" depart="5.61">
        <route edges="-23.80.00 109 109.80.00 131 131.180.00 148"/>
    </vehicle>
    <vehicle id="-27.1" depart="5.61">
        <route edges="-27 -27.80.00 -3 -3.180.00 11 11.80.00 23 23.80.00 31 31.80.00 64 64.80.00 120 120.180.00 131"/>
    </vehicle>
    <vehicle id="27.1" depart="6.24">
        <route edges="27 27.80.00 55 71"/>
    </vehicle>
    <vehicle id="31.1" depart="6.40">
        <route edges="31 31.80.00 60 60.80.00 75 75.121.42 -75 -75.121.42 92"/>
    </vehicle>
    <vehicle id="31.80.00.1" depart="6.40">
        <route edges="31.80.00 -31 -31.80.00 -23 -23.80.00 -11 -11.80.00 3 3.180.00 27 27.80.00 45 -68 -43 -43.80.00 -27 -27.80.00 -3 -3.180.00 11 11.80.00 23 23.80.00 31"/>
    </vehicle>
    <vehicle id="27.80.00.1" depart="6.57">
        <route edges="27.80.00 43 68 -45"/>
    </vehicle>
    <vehicle id="-109.1" depart="7.13">
        <route edges="-109 -109.80.00 -11 -11.80.00 3 3.180.00 27 27.80.00 55 71"/>
    </vehicle>
    <vehicle id="-109.80.00.1" depart="7.13">
        <route edges="-109.80.00 23 23.80.00 31 31.80.00 64 64.80.00 120 120.180.00 131"/>
    </vehicle>
    <vehicle id="-31.80.00.1" depart="7.68">
        <route edges="-31.80.00 -23 -23.80.00 -11 -11.80.00 3 3.180.00 27 27.80.00 43 68 -45"/>
    </vehicle>
    <vehicle id="-31.1" depart="7.80">
        <route edges="-31 -31.80.00 -23 -23.80.00 109 109.80.00 123 123.121.42 -144"/>
    </vehicle>
    <vehicle id="-3.180.00.2" depart="8.75">
        <route edges="-3.180.00 15 15.180.00"/>
    </vehicle>
    <vehicle id="-3.2" depart="8.91">
        <route edges="-3 -3.180.00 5"/>
    </vehicle>
    <vehicle id="109.1" depart="8.91">
        <route edges="109 109.80.00 -109 -109.80.00 -11 -11.80.00 3 3.180.00 27 27.80.00 43 68 -45"/>
    </vehicle>
    <vehicle id="109.80.00.1" depart="9.42">
        <route edges="109.80.00 -120 -120.180.00"/>
    </vehicle>
    <vehicle id="23.80.00.2" depart="9.50">
        <route edges="23.80.00 37"/>
    </vehicle>
    <vehicle id="23.2" depart="9.60">
        <route edges="23 23.80.00 31 31.80.00 64 64.80.00 120 120.180.00 -109 -109.80.00 109 109.80.00 -120"/>
    </vehicle>
    <vehicle id="-11.80.00.2" depart="9.98">
        <route edges="-11.80.00 3 3.180.00 27 27.80.00 45"/>
    </vehicle>
    <vehicle id="3.180.00.2" depart="9.98">
        <route edges="3.180.00 27 27.80.00 45"/>
    </vehicle>
    <vehicle id="3.2" depart="10.08">
        <route edges="3 3.180.00 27 27.80.00 55 71"/>
    </vehicle>
    <vehicle id="11.2" depart="10.29">
        <route edges="11 11.80.00 109 109.80.00 -109 -109.80.00 23 23.80.00 -23 -23.80.00 -11 -11.80.00 3 3.180.00 27 27.80.00 43 68 -45"/>
    </vehicle>
    <vehicle id="-11.2" depart="10.39">
        <route edges="-11 -11.80.00 3 3.180.00 27 27.80.00 43 68 -45"/>
    </vehicle>
    <vehicle id="11.80.00.2" depart="10.39">
        <route edges="11.80.00 23 23.80.00 31 31.80.00 64 64.80.00 -64 -64.80.00 -31 -31.80.00 -23 -23.80.00 109 109.80.00 -109 -109.80.00 -11 -11.80.00 3 3.180.00 -71"/>
    </vehicle>
    <vehicle id="-27.80.00.2" depart="10.50">
        <route edges="-27.80.00 -3 -3.180.00 11 11.80.00 23 23.80.00 31 31.80.00 60 60.80.00 -60 -60.80.00 -31 -31.80.00 -23 -23.80.00 -11 -11.80.00 3 3.180.00 27 27.80.00 43 68"/>
    </vehicle>
    <vehicle id="-23.2" depart="10.85">
        <route edges="-23 -23.80.00 109 109.80.00 -109 -109.80.00 23 23.80.00 31 31.80.00 64 64.80.00 120 120.180.00 131"/>
    </vehicle>
    <vehicle id="-131.180.00.1" depart="10.85">
        <route edges="-131.180.00 -120"/>
    </vehicle>
    <vehicle id="-23.80.00.2" depart="11.21">
        <route edges="-23.80.00 109 109.80.00 -120"/>
    </vehicle>
    <vehicle id="-27.2" depart="11.21">
        <route edges="-27 -27.80.00 -3 -3.180.00 11 11.80.00 -11 -11.80.00 3 3.180.00 27 27.80.00 45"/>
    </vehicle>
    <vehicle id="15.1" depart="11.34">
        <route edges="15 15.180.00"/>
    </vehicle>
    <vehicle id="120.1" depart="11.88">
        <route edges="120 120.180.00 -109 -109.80.00 23 23.80.00 31 31.80.00 60 60.80.00 -60 -60.80.00 -31 -31.80.00 -23 -23.80.00 109 109.80.00 123 123.121.42"/>
    </vehicle>
    <vehicle id="120.180.00.1" depart="12.17">
        <route edges="120.180.00 131"/>
    </vehicle>
    <vehicle id="27.2" depart="12.47">
        <route edges="27 27.80.00 43 68"/>
    </vehicle>
    <vehicle id="-15.1" depart="12.79">
        <route edges="-15 -15.180.00"/>
    </vehicle>