<?xml version="1.0" encoding="UTF-8"?>
<routes xmlns:xsi="http://www.w3.org/2001/XMLSchema-instance" xsi:noNamespaceSchemaLocation="http://sumo.dlr.de/xsd/routes_file.xsd">
    <vType id="taxi" vClass="taxi" boardingDuration="2">
        <param key="has.taxi.device" value="true"/>
        <param key="device.taxi.parking" value="false"/>
    </vType>

    <trip id="trip_0" type="taxi" depart="0.00" from="A0B0" to="B0C0" departSpeed="avg">
        <stop lane="A0B0_1" triggered="person"/>
    </trip>
    <trip id="trip_1" type="taxi" depart="0.00" from="A2B2" to="B2C2" departSpeed="avg">
        <stop lane="A2B2_1" triggered="person"/>
    </trip>

</routes>
