<?xml version="1.0" encoding="UTF-8"?>

<!-- generated on 01.08.2019 09:31:13 by Eclipse SUMO netedit Version v1_2_0+1355-38b4c968b4
<configuration xmlns:xsi="http://www.w3.org/2001/XMLSchema-instance" xsi:noNamespaceSchemaLocation="http://sumo.dlr.de/xsd/netconvertConfiguration.xsd">

    <input>
        <sumo-net-file value="C:/Users/SUMO-Test/.texttest/tmp/netedit.gui.01Aug093001.10208/netedit.gui/demandElements/vehicle/load/arrivalPosLat\input_net.net.xml"/>
    </input>

    <output>
        <output-file value="C:/Users/SUMO-Test/.texttest/tmp/netedit.gui.01Aug093001.10208/netedit.gui/demandElements/vehicle/load/arrivalPosLat\net.net.xml"/>
    </output>

    <processing>
        <geometry.max-grade.fix value="false"/>
        <offset.disable-normalization value="true"/>
        <lefthand value="false"/>
    </processing>

    <junctions>
        <no-turnarounds value="true"/>
        <junctions.corner-detail value="5"/>
        <junctions.limit-turn-speed value="5.5"/>
        <rectangular-lane-cut value="false"/>
    </junctions>

    <pedestrian>
        <walkingareas value="false"/>
    </pedestrian>

    <netedit>
        <additional-files value="C:/Users/SUMO-Test/.texttest/tmp/netedit.gui.01Aug093001.10208/netedit.gui/demandElements/vehicle/load/arrivalPosLat\additionals.xml"/>
        <additionals-output value="C:/Users/SUMO-Test/.texttest/tmp/netedit.gui.01Aug093001.10208/netedit.gui/demandElements/vehicle/load/arrivalPosLat\additionals.xml"/>
        <route-files value="C:/Users/SUMO-Test/.texttest/tmp/netedit.gui.01Aug093001.10208/netedit.gui/demandElements/vehicle/load/arrivalPosLat\routes.xml"/>
        <demandelements-output value="C:/Users/SUMO-Test/.texttest/tmp/netedit.gui.01Aug093001.10208/netedit.gui/demandElements/vehicle/load/arrivalPosLat\routes.xml"/>
    </netedit>

    <visualisation>
        <window-size value="700,500"/>
        <window-pos value="50,50"/>
        <gui-testing value="true"/>
        <gui-testing-debug value="true"/>
        <gui-testing-debug-gl value="true"/>
    </visualisation>

    <report>
        <no-warnings value="true"/>
        <error-log value="C:/Users/SUMO-Test/.texttest/tmp/netedit.gui.01Aug093001.10208/netedit.gui/demandElements/vehicle/load/arrivalPosLat\log.txt"/>
    </report>

</configuration>
-->

<routes xmlns:xsi="http://www.w3.org/2001/XMLSchema-instance" xsi:noNamespaceSchemaLocation="http://sumo.dlr.de/xsd/routes_file.xsd">
    <route edges="gneE2 gneE4 gneE5" color="yellow" id="route_0"/>
    <vehicle id="vehicle_0" depart="20.00" route="route_0"/>
    <vehicle id="vehicle_1" depart="20.00" arrivalPosLat="0.00" route="route_0"/>
    <vehicle id="vehicle_2" depart="20.00" arrivalPosLat="0.00" route="route_0"/>
    <vehicle id="vehicle_3" depart="20.00" arrivalPosLat="0.00" route="route_0"/>
    <vehicle id="vehicle_4" depart="20.00" arrivalPosLat="0.00" route="route_0"/>
    <vehicle id="vehicle_5" depart="20.00" arrivalPosLat="left" route="route_0"/>
    <vehicle id="vehicle_6" depart="20.00" arrivalPosLat="right" route="route_0"/>
    <vehicle id="vehicle_7" depart="20.00" arrivalPosLat="center" route="route_0"/>
</routes>
