<routes>

	<vehicle id="1" depart="0" route="1" departLane="free"/>
	<vehicle id="2" depart="0" route="1" departLane="free"/>
	<vehicle id="3" depart="0" route="1" departLane="free"/>

</routes>
