<nodes>

	<node id="1" x="1000" y="0"/>
	<node id="2" x="500" y="0"/>

</nodes>
