<?xml version="1.0"?>

<!-- generated on 04/26/10 12:35:42 by SUMO netconvert Version dev-SVN-r8163
<configuration>

    <input>
        <xml-node-files value="input_nodes.nod.xml"/>
        <xml-edge-files value="input_edges.edg.xml"/>
    </input>

    <processing>
        <no-internal-links value="true"/>
    </processing>

    <report>
        <verbose value="true"/>
    </report>

</configuration>
-->

<net>

   <location netOffset="-500.00,0.00" convBoundary="0.00,0.00,500.00,0.00" origBoundary="500.00,0.00,1000.00,0.00" projParameter="!"/>


   <edge id="1" from="1" to="2" priority="-1" type="" function="normal">
      <lanes>
         <lane id="1_0" depart="1" maxspeed="30.00" length="500.00" shape="500.00,8.25 0.00,8.25"/>
         <lane id="1_1" depart="0" maxspeed="30.00" length="500.00" shape="500.00,4.95 0.00,4.95"/>
         <lane id="1_2" depart="0" maxspeed="30.00" length="500.00" shape="500.00,1.65 0.00,1.65"/>
      </lanes>
   </edge>




   <junction id="1" type="DEAD_END" x="500.00" y="0.00" incLanes="" intLanes="" shape="500.00,0.05 500.00,9.85"/>

   <junction id="2" type="DEAD_END" x="0.00" y="0.00" incLanes="1_0 1_1 1_2" intLanes="" shape="-0.00,9.85 -0.00,0.05"/>


   <succ edge="1" lane="1_0" junction="2">
      <succlane lane="SUMO_NO_DESTINATION" yield="1" dir="s" state="O"/>
   </succ>

   <succ edge="1" lane="1_1" junction="2">
      <succlane lane="SUMO_NO_DESTINATION" yield="1" dir="s" state="O"/>
   </succ>

   <succ edge="1" lane="1_2" junction="2">
      <succlane lane="SUMO_NO_DESTINATION" yield="1" dir="s" state="O"/>
   </succ>


</net>
