<?xml version="1.0" encoding="UTF-8"?>

<!-- generated on 2026-03-06 09:07:45.382694 by Eclipse SUMO countEdgeUsage.py v1_26_0+0470-b03bdd44452
<configuration>
    <output-file value="out.rou.xml"/>
    <intermediate value="True"/>
    <elements value="vehicle,flow"/>
    <routefiles value="routes.rou.xml"/>
</configuration>
-->

<edgedata xmlns:xsi="http://www.w3.org/2001/XMLSchema-instance" xsi:noNamespaceSchemaLocation="http://sumo.dlr.de/xsd/edgedata_file.xsd">
    <interval begin="0.0" end="4.0" id="routeStats">
        <edge id="a" departed="11" arrived="0" delta="-11" intermediate="11"/>
        <edge id="b" departed="0" arrived="0" delta="0" intermediate="11"/>
        <edge id="c" departed="0" arrived="0" delta="0" intermediate="11"/>
        <edge id="d" departed="0" arrived="11" delta="11" intermediate="11"/>
    </interval>
</edgedata>
