<routes xmlns:xsi="http://www.w3.org/2001/XMLSchema-instance" xsi:noNamespaceSchemaLocation="http://sumo.dlr.de/xsd/routes_file.xsd">
    <vType id="DEFAULT_VEHTYPE" sigma="0"/>
    <vehicle id="v1" depart="triggered" departPos="0">
        <route edges="beg middle end"/>
        <stop lane="beg_0"    endPos="100" duration="10"/>
        <stop lane="middle_0" startPos="80" endPos="100" duration="10"/>
        <stop lane="middle_0" endPos="900" duration="10"/>
    </vehicle>
    <person id="p1" depart="0">
        <ride from="beg" to="middle" arrivalPos="60" lines="v1"/>
        <stop lane="middle_0" duration="100"/>
    </person>
</routes>
