<?xml version="1.0" encoding="UTF-8"?>

<!-- generated on 2024-07-11 06:25:32 by Eclipse SUMO sumo Version v1_20_0+1189-0cabe11213e
This data file and the accompanying materials
are made available under the terms of the Eclipse Public License v2.0
which accompanies this distribution, and is available at
http://www.eclipse.org/legal/epl-v20.html
This file may also be made available under the following Secondary
Licenses when the conditions for such availability set forth in the Eclipse
Public License 2.0 are satisfied: GNU General Public License, version 2
or later which is available at
https://www.gnu.org/licenses/old-licenses/gpl-2.0-standalone.html
SPDX-License-Identifier: EPL-2.0 OR GPL-2.0-or-later
<sumoConfiguration xmlns:xsi="http://www.w3.org/2001/XMLSchema-instance" xsi:noNamespaceSchemaLocation="http://sumo.dlr.de/xsd/sumoConfiguration.xsd">

    <input>
        <net-file value="net.net.xml"/>
        <route-files value="input_routes.rou.xml"/>
        <additional-files value="input_additional.add.xml"/>
    </input>

    <output>
        <write-license value="true"/>
        <battery-output value="battery.xml"/>
        <battery-output.precision value="4"/>
    </output>

    <time>
        <end value="50"/>
    </time>

    <processing>
        <default.speeddev value="0"/>
    </processing>

    <report>
        <xml-validation value="never"/>
        <duration-log.disable value="true"/>
        <no-step-log value="true"/>
    </report>

    <battery>
        <device.battery.probability value="1"/>
    </battery>

</sumoConfiguration>
-->

<battery-export xmlns:xsi="http://www.w3.org/2001/XMLSchema-instance" xsi:noNamespaceSchemaLocation="http://sumo.dlr.de/xsd/battery_file.xsd">
    <timestep time="0.00">
        <vehicle id="veh" energyConsumed="0.0000" totalEnergyConsumed="0.0000" totalEnergyRegenerated="0.0000" actualBatteryCapacity="17500.0000" maximumBatteryCapacity="35000.0000" chargingStationId="NULL" energyCharged="0.0000" energyChargedInTransit="0.0000" energyChargedStopped="0.0000" speed="0.0000" acceleration="0.0000" x="-987.9000" y="995.0500" lane="D2_0" posOnLane="12.1000" timeStopped="0"/>
    </timestep>
    <timestep time="1.00">
        <vehicle id="veh" energyConsumed="0.8418" totalEnergyConsumed="0.8418" totalEnergyRegenerated="0.0000" actualBatteryCapacity="17499.1582" maximumBatteryCapacity="35000.0000" chargingStationId="NULL" energyCharged="0.0000" energyChargedInTransit="0.0000" energyChargedStopped="0.0000" speed="1.0000" acceleration="1.0000" x="-986.9000" y="995.0500" lane="D2_0" posOnLane="13.1000" timeStopped="0"/>
    </timestep>
    <timestep time="2.00">
        <vehicle id="veh" energyConsumed="1.9537" totalEnergyConsumed="2.7955" totalEnergyRegenerated="0.0000" actualBatteryCapacity="17497.2045" maximumBatteryCapacity="35000.0000" chargingStationId="NULL" energyCharged="0.0000" energyChargedInTransit="0.0000" energyChargedStopped="0.0000" speed="2.0000" acceleration="1.0000" x="-984.9000" y="995.0500" lane="D2_0" posOnLane="15.1000" timeStopped="0"/>
    </timestep>
    <timestep time="3.00">
        <vehicle id="veh" energyConsumed="3.0674" totalEnergyConsumed="5.8629" totalEnergyRegenerated="0.0000" actualBatteryCapacity="17494.1371" maximumBatteryCapacity="35000.0000" chargingStationId="NULL" energyCharged="0.0000" energyChargedInTransit="0.0000" energyChargedStopped="0.0000" speed="3.0000" acceleration="1.0000" x="-981.9000" y="995.0500" lane="D2_0" posOnLane="18.1000" timeStopped="0"/>
    </timestep>
    <timestep time="4.00">
        <vehicle id="veh" energyConsumed="4.1838" totalEnergyConsumed="10.0466" totalEnergyRegenerated="0.0000" actualBatteryCapacity="17489.9534" maximumBatteryCapacity="35000.0000" chargingStationId="NULL" energyCharged="0.0000" energyChargedInTransit="0.0000" energyChargedStopped="0.0000" speed="4.0000" acceleration="1.0000" x="-977.9000" y="995.0500" lane="D2_0" posOnLane="22.1000" timeStopped="0"/>
        <vehicle id="veh2" energyConsumed="0.0000" totalEnergyConsumed="0.0000" totalEnergyRegenerated="0.0000" actualBatteryCapacity="17500.0000" maximumBatteryCapacity="35000.0000" chargingStationId="NULL" energyCharged="0.0000" energyChargedInTransit="0.0000" energyChargedStopped="0.0000" speed="0.0000" acceleration="0.0000" x="-994.9000" y="995.0500" lane="D2_0" posOnLane="5.1000" timeStopped="0"/>
    </timestep>
    <timestep time="5.00">
        <vehicle id="veh" energyConsumed="5.3038" totalEnergyConsumed="15.3505" totalEnergyRegenerated="0.0000" actualBatteryCapacity="17484.6495" maximumBatteryCapacity="35000.0000" chargingStationId="NULL" energyCharged="0.0000" energyChargedInTransit="0.0000" energyChargedStopped="0.0000" speed="5.0000" acceleration="1.0000" x="-972.9000" y="995.0500" lane="D2_0" posOnLane="27.1000" timeStopped="0"/>
        <vehicle id="veh2" energyConsumed="1.2218" totalEnergyConsumed="1.2218" totalEnergyRegenerated="0.0000" actualBatteryCapacity="17498.7782" maximumBatteryCapacity="35000.0000" chargingStationId="NULL" energyCharged="0.0000" energyChargedInTransit="0.0000" energyChargedStopped="0.0000" speed="2.2431" acceleration="2.2431" x="-992.6569" y="995.0500" lane="D2_0" posOnLane="7.3431" timeStopped="0"/>
    </timestep>
    <timestep time="6.00">
        <vehicle id="veh" energyConsumed="6.4284" totalEnergyConsumed="21.7789" totalEnergyRegenerated="0.0000" actualBatteryCapacity="17478.2211" maximumBatteryCapacity="35000.0000" chargingStationId="NULL" energyCharged="0.0000" energyChargedInTransit="0.0000" energyChargedStopped="0.0000" speed="6.0000" acceleration="1.0000" x="-966.9000" y="995.0500" lane="D2_0" posOnLane="33.1000" timeStopped="0"/>
        <vehicle id="veh2" energyConsumed="3.0514" totalEnergyConsumed="4.2731" totalEnergyRegenerated="0.0000" actualBatteryCapacity="17495.7269" maximumBatteryCapacity="35000.0000" chargingStationId="NULL" energyCharged="0.0000" energyChargedInTransit="0.0000" energyChargedStopped="0.0000" speed="4.2447" acceleration="2.0016" x="-988.4122" y="995.0500" lane="D2_0" posOnLane="11.5878" timeStopped="0"/>
    </timestep>
    <timestep time="7.00">
        <vehicle id="veh" energyConsumed="7.5585" totalEnergyConsumed="29.3373" totalEnergyRegenerated="0.0000" actualBatteryCapacity="17470.6627" maximumBatteryCapacity="35000.0000" chargingStationId="NULL" energyCharged="0.0000" energyChargedInTransit="0.0000" energyChargedStopped="0.0000" speed="7.0000" acceleration="1.0000" x="-959.9000" y="995.0500" lane="D2_0" posOnLane="40.1000" timeStopped="0"/>
        <vehicle id="veh2" energyConsumed="4.7801" totalEnergyConsumed="9.0533" totalEnergyRegenerated="0.0000" actualBatteryCapacity="17490.9467" maximumBatteryCapacity="35000.0000" chargingStationId="NULL" energyCharged="0.0000" energyChargedInTransit="0.0000" energyChargedStopped="0.0000" speed="6.1996" acceleration="1.9549" x="-982.2126" y="998.3500" lane="D2_1" posOnLane="17.7874" timeStopped="0"/>
    </timestep>
    <timestep time="8.00">
        <vehicle id="veh" energyConsumed="8.6949" totalEnergyConsumed="38.0322" totalEnergyRegenerated="0.0000" actualBatteryCapacity="17461.9678" maximumBatteryCapacity="35000.0000" chargingStationId="NULL" energyCharged="0.0000" energyChargedInTransit="0.0000" energyChargedStopped="0.0000" speed="8.0000" acceleration="1.0000" x="-951.9000" y="995.0500" lane="D2_0" posOnLane="48.1000" timeStopped="0"/>
        <vehicle id="veh2" energyConsumed="7.9382" totalEnergyConsumed="16.9915" totalEnergyRegenerated="0.0000" actualBatteryCapacity="17483.0085" maximumBatteryCapacity="35000.0000" chargingStationId="NULL" energyCharged="0.0000" energyChargedInTransit="0.0000" energyChargedStopped="0.0000" speed="8.5211" acceleration="2.3215" x="-973.6916" y="998.3500" lane="D2_1" posOnLane="26.3084" timeStopped="0"/>
    </timestep>
    <timestep time="9.00">
        <vehicle id="veh" energyConsumed="9.8386" totalEnergyConsumed="47.8708" totalEnergyRegenerated="0.0000" actualBatteryCapacity="17452.1292" maximumBatteryCapacity="35000.0000" chargingStationId="NULL" energyCharged="0.0000" energyChargedInTransit="0.0000" energyChargedStopped="0.0000" speed="9.0000" acceleration="1.0000" x="-942.9000" y="995.0500" lane="D2_0" posOnLane="57.1000" timeStopped="0"/>
        <vehicle id="veh2" energyConsumed="11.1772" totalEnergyConsumed="28.1687" totalEnergyRegenerated="0.0000" actualBatteryCapacity="17471.8313" maximumBatteryCapacity="35000.0000" chargingStationId="NULL" energyCharged="0.0000" energyChargedInTransit="0.0000" energyChargedStopped="0.0000" speed="10.9840" acceleration="2.4630" x="-962.7075" y="998.3500" lane="D2_1" posOnLane="37.2925" timeStopped="0"/>
    </timestep>
    <timestep time="10.00">
        <vehicle id="veh" energyConsumed="10.9905" totalEnergyConsumed="58.8614" totalEnergyRegenerated="0.0000" actualBatteryCapacity="17441.1386" maximumBatteryCapacity="35000.0000" chargingStationId="NULL" energyCharged="0.0000" energyChargedInTransit="0.0000" energyChargedStopped="0.0000" speed="10.0000" acceleration="1.0000" x="-932.9000" y="995.0500" lane="D2_0" posOnLane="67.1000" timeStopped="0"/>
        <vehicle id="veh2" energyConsumed="9.8055" totalEnergyConsumed="37.9742" totalEnergyRegenerated="0.0000" actualBatteryCapacity="17462.0258" maximumBatteryCapacity="35000.0000" chargingStationId="NULL" energyCharged="0.0000" energyChargedInTransit="0.0000" energyChargedStopped="0.0000" speed="12.7105" acceleration="1.7265" x="-949.9970" y="998.3500" lane="D2_1" posOnLane="50.0030" timeStopped="0"/>
    </timestep>
    <timestep time="11.00">
        <vehicle id="veh" energyConsumed="12.1516" totalEnergyConsumed="71.0129" totalEnergyRegenerated="0.0000" actualBatteryCapacity="17428.9871" maximumBatteryCapacity="35000.0000" chargingStationId="NULL" energyCharged="0.0000" energyChargedInTransit="0.0000" energyChargedStopped="0.0000" speed="11.0000" acceleration="1.0000" x="-921.9000" y="995.0500" lane="D2_0" posOnLane="78.1000" timeStopped="0"/>
        <vehicle id="veh2" energyConsumed="3.0162" totalEnergyConsumed="40.9904" totalEnergyRegenerated="0.0000" actualBatteryCapacity="17459.0096" maximumBatteryCapacity="35000.0000" chargingStationId="NULL" energyCharged="0.0000" energyChargedInTransit="0.0000" energyChargedStopped="0.0000" speed="13.0826" acceleration="0.3721" x="-936.9144" y="998.3500" lane="D2_1" posOnLane="63.0856" timeStopped="0"/>
    </timestep>
    <timestep time="12.00">
        <vehicle id="veh" energyConsumed="13.3226" totalEnergyConsumed="84.3355" totalEnergyRegenerated="0.0000" actualBatteryCapacity="17415.6645" maximumBatteryCapacity="35000.0000" chargingStationId="NULL" energyCharged="0.0000" energyChargedInTransit="0.0000" energyChargedStopped="0.0000" speed="12.0000" acceleration="1.0000" x="-909.9000" y="995.0500" lane="D2_0" posOnLane="90.1000" timeStopped="0"/>
        <vehicle id="veh2" energyConsumed="0.3070" totalEnergyConsumed="41.2974" totalEnergyRegenerated="0.0000" actualBatteryCapacity="17458.7026" maximumBatteryCapacity="35000.0000" chargingStationId="NULL" energyCharged="0.0000" energyChargedInTransit="0.0000" energyChargedStopped="0.0000" speed="12.9768" acceleration="-0.1058" x="-923.9376" y="998.3500" lane="D2_1" posOnLane="76.0624" timeStopped="0"/>
    </timestep>
    <timestep time="13.00">
        <vehicle id="veh" energyConsumed="14.5046" totalEnergyConsumed="98.8401" totalEnergyRegenerated="0.0000" actualBatteryCapacity="17401.1599" maximumBatteryCapacity="35000.0000" chargingStationId="NULL" energyCharged="0.0000" energyChargedInTransit="0.0000" energyChargedStopped="0.0000" speed="13.0000" acceleration="1.0000" x="-896.9000" y="995.0500" lane="D2_0" posOnLane="103.1000" timeStopped="0"/>
        <vehicle id="veh2" energyConsumed="4.3464" totalEnergyConsumed="45.6438" totalEnergyRegenerated="0.0000" actualBatteryCapacity="17454.3562" maximumBatteryCapacity="35000.0000" chargingStationId="NULL" energyCharged="0.0000" energyChargedInTransit="0.0000" energyChargedStopped="0.0000" speed="13.5580" acceleration="0.5812" x="-910.3796" y="998.3500" lane="D2_1" posOnLane="89.6204" timeStopped="0"/>
    </timestep>
    <timestep time="14.00">
        <vehicle id="veh" energyConsumed="14.7605" totalEnergyConsumed="113.6006" totalEnergyRegenerated="0.0000" actualBatteryCapacity="17386.3994" maximumBatteryCapacity="35000.0000" chargingStationId="NULL" energyCharged="0.0000" energyChargedInTransit="0.0000" energyChargedStopped="0.0000" speed="13.8900" acceleration="0.8900" x="-883.0100" y="995.0500" lane="D2_0" posOnLane="116.9900" timeStopped="0"/>
        <vehicle id="veh2" energyConsumed="-3.4122" totalEnergyConsumed="45.6438" totalEnergyRegenerated="3.4122" actualBatteryCapacity="17460.5184" maximumBatteryCapacity="35000.0000" chargingStationId="CS2" energyCharged="2.7500" energyChargedInTransit="2.7500" energyChargedStopped="0.0000" speed="12.7729" acceleration="-0.7850" x="-897.6067" y="998.3500" lane="D2_1" posOnLane="102.3933" timeStopped="0"/>
    </timestep>
    <timestep time="15.00">
        <vehicle id="veh" energyConsumed="7.9881" totalEnergyConsumed="121.5886" totalEnergyRegenerated="0.0000" actualBatteryCapacity="17378.4114" maximumBatteryCapacity="35000.0000" chargingStationId="NULL" energyCharged="0.0000" energyChargedInTransit="0.0000" energyChargedStopped="0.0000" speed="13.8900" acceleration="0.0000" x="-869.1200" y="995.0500" lane="D2_0" posOnLane="130.8800" timeStopped="0"/>
        <vehicle id="veh2" energyConsumed="5.1735" totalEnergyConsumed="50.8172" totalEnergyRegenerated="3.4122" actualBatteryCapacity="17458.0949" maximumBatteryCapacity="35000.0000" chargingStationId="CS2" energyCharged="2.7500" energyChargedInTransit="2.7500" energyChargedStopped="0.0000" speed="13.5052" acceleration="0.7322" x="-884.1015" y="998.3500" lane="D2_1" posOnLane="115.8985" timeStopped="0"/>
    </timestep>
    <timestep time="16.00">
        <vehicle id="veh" energyConsumed="7.9881" totalEnergyConsumed="129.5767" totalEnergyRegenerated="0.0000" actualBatteryCapacity="17370.4233" maximumBatteryCapacity="35000.0000" chargingStationId="NULL" energyCharged="0.0000" energyChargedInTransit="0.0000" energyChargedStopped="0.0000" speed="13.8900" acceleration="0.0000" x="-855.2300" y="995.0500" lane="D2_0" posOnLane="144.7700" timeStopped="0"/>
        <vehicle id="veh2" energyConsumed="-3.1019" totalEnergyConsumed="50.8172" totalEnergyRegenerated="6.5141" actualBatteryCapacity="17461.1969" maximumBatteryCapacity="35000.0000" chargingStationId="NULL" energyCharged="0.0000" energyChargedInTransit="0.0000" energyChargedStopped="0.0000" speed="12.7761" acceleration="-0.7291" x="-871.3254" y="998.3500" lane="D2_1" posOnLane="128.6746" timeStopped="0"/>
    </timestep>
    <timestep time="17.00">
        <vehicle id="veh" energyConsumed="7.9881" totalEnergyConsumed="137.5648" totalEnergyRegenerated="0.0000" actualBatteryCapacity="17362.4352" maximumBatteryCapacity="35000.0000" chargingStationId="NULL" energyCharged="0.0000" energyChargedInTransit="0.0000" energyChargedStopped="0.0000" speed="13.8900" acceleration="0.0000" x="-841.3400" y="995.0500" lane="D2_0" posOnLane="158.6600" timeStopped="0"/>
        <vehicle id="veh2" energyConsumed="5.0346" totalEnergyConsumed="55.8519" totalEnergyRegenerated="6.5141" actualBatteryCapacity="17456.1622" maximumBatteryCapacity="35000.0000" chargingStationId="NULL" energyCharged="0.0000" energyChargedInTransit="0.0000" energyChargedStopped="0.0000" speed="13.4850" acceleration="0.7089" x="-857.8404" y="998.3500" lane="D2_1" posOnLane="142.1596" timeStopped="0"/>
    </timestep>
    <timestep time="18.00">
        <vehicle id="veh" energyConsumed="7.9881" totalEnergyConsumed="145.5528" totalEnergyRegenerated="0.0000" actualBatteryCapacity="17354.4472" maximumBatteryCapacity="35000.0000" chargingStationId="NULL" energyCharged="0.0000" energyChargedInTransit="0.0000" energyChargedStopped="0.0000" speed="13.8900" acceleration="0.0000" x="-827.4500" y="995.0500" lane="D2_0" posOnLane="172.5500" timeStopped="0"/>
        <vehicle id="veh2" energyConsumed="2.8798" totalEnergyConsumed="58.7317" totalEnergyRegenerated="6.5141" actualBatteryCapacity="17453.2824" maximumBatteryCapacity="35000.0000" chargingStationId="NULL" energyCharged="0.0000" energyChargedInTransit="0.0000" energyChargedStopped="0.0000" speed="13.7987" acceleration="0.3137" x="-844.0417" y="998.3500" lane="D2_1" posOnLane="155.9583" timeStopped="0"/>
    </timestep>
    <timestep time="19.00">
        <vehicle id="veh" energyConsumed="7.9881" totalEnergyConsumed="153.5409" totalEnergyRegenerated="0.0000" actualBatteryCapacity="17346.4591" maximumBatteryCapacity="35000.0000" chargingStationId="NULL" energyCharged="0.0000" energyChargedInTransit="0.0000" energyChargedStopped="0.0000" speed="13.8900" acceleration="0.0000" x="-813.5600" y="995.0500" lane="D2_0" posOnLane="186.4400" timeStopped="0"/>
        <vehicle id="veh2" energyConsumed="-3.0657" totalEnergyConsumed="58.7317" totalEnergyRegenerated="9.5798" actualBatteryCapacity="17456.3482" maximumBatteryCapacity="35000.0000" chargingStationId="NULL" energyCharged="0.0000" energyChargedInTransit="0.0000" energyChargedStopped="0.0000" speed="13.0862" acceleration="-0.7125" x="-830.9555" y="998.3500" lane="D2_1" posOnLane="169.0445" timeStopped="0"/>
    </timestep>
    <timestep time="20.00">
        <vehicle id="veh" energyConsumed="7.9881" totalEnergyConsumed="161.5289" totalEnergyRegenerated="0.0000" actualBatteryCapacity="17338.4711" maximumBatteryCapacity="35000.0000" chargingStationId="NULL" energyCharged="0.0000" energyChargedInTransit="0.0000" energyChargedStopped="0.0000" speed="13.8900" acceleration="0.0000" x="-799.6700" y="995.0500" lane="D2_0" posOnLane="200.3300" timeStopped="0"/>
        <vehicle id="veh2" energyConsumed="-0.3527" totalEnergyConsumed="58.7317" totalEnergyRegenerated="9.9326" actualBatteryCapacity="17456.7009" maximumBatteryCapacity="35000.0000" chargingStationId="NULL" energyCharged="0.0000" energyChargedInTransit="0.0000" energyChargedStopped="0.0000" speed="12.8620" acceleration="-0.2242" x="-818.0935" y="998.3500" lane="D2_1" posOnLane="181.9065" timeStopped="0"/>
    </timestep>
    <timestep time="21.00">
        <vehicle id="veh" energyConsumed="7.9881" totalEnergyConsumed="169.5170" totalEnergyRegenerated="0.0000" actualBatteryCapacity="17330.4830" maximumBatteryCapacity="35000.0000" chargingStationId="NULL" energyCharged="0.0000" energyChargedInTransit="0.0000" energyChargedStopped="0.0000" speed="13.8900" acceleration="0.0000" x="-785.7800" y="995.0500" lane="D2_0" posOnLane="214.2200" timeStopped="0"/>
        <vehicle id="veh2" energyConsumed="0.2561" totalEnergyConsumed="58.9878" totalEnergyRegenerated="9.9326" actualBatteryCapacity="17456.4448" maximumBatteryCapacity="35000.0000" chargingStationId="NULL" energyCharged="0.0000" energyChargedInTransit="0.0000" energyChargedStopped="0.0000" speed="12.7501" acceleration="-0.1119" x="-805.3434" y="998.3500" lane="D2_1" posOnLane="194.6566" timeStopped="0"/>
    </timestep>
    <timestep time="22.00">
        <vehicle id="veh" energyConsumed="7.9881" totalEnergyConsumed="177.5051" totalEnergyRegenerated="0.0000" actualBatteryCapacity="17322.4949" maximumBatteryCapacity="35000.0000" chargingStationId="NULL" energyCharged="0.0000" energyChargedInTransit="0.0000" energyChargedStopped="0.0000" speed="13.8900" acceleration="0.0000" x="-771.8900" y="995.0500" lane="D2_0" posOnLane="228.1100" timeStopped="0"/>
        <vehicle id="veh2" energyConsumed="7.1441" totalEnergyConsumed="66.1319" totalEnergyRegenerated="9.9326" actualBatteryCapacity="17449.3007" maximumBatteryCapacity="35000.0000" chargingStationId="CS4" energyCharged="0.0000" energyChargedInTransit="0.0000" energyChargedStopped="0.0000" speed="13.8078" acceleration="1.0578" x="-791.5356" y="998.3500" lane="D2_1" posOnLane="208.4644" timeStopped="0"/>
    </timestep>
    <timestep time="23.00">
        <vehicle id="veh" energyConsumed="7.9881" totalEnergyConsumed="185.4931" totalEnergyRegenerated="0.0000" actualBatteryCapacity="17314.5069" maximumBatteryCapacity="35000.0000" chargingStationId="NULL" energyCharged="0.0000" energyChargedInTransit="0.0000" energyChargedStopped="0.0000" speed="13.8900" acceleration="0.0000" x="-758.0000" y="995.0500" lane="D2_0" posOnLane="242.0000" timeStopped="0"/>
        <vehicle id="veh2" energyConsumed="-3.4427" totalEnergyConsumed="66.1319" totalEnergyRegenerated="13.3753" actualBatteryCapacity="17452.7434" maximumBatteryCapacity="35000.0000" chargingStationId="NULL" energyCharged="0.0000" energyChargedInTransit="0.0000" energyChargedStopped="0.0000" speed="13.0268" acceleration="-0.7810" x="-778.5087" y="998.3500" lane="D2_1" posOnLane="221.4913" timeStopped="0"/>
    </timestep>
    <timestep time="24.00">
        <vehicle id="veh" energyConsumed="7.9881" totalEnergyConsumed="193.4812" totalEnergyRegenerated="0.0000" actualBatteryCapacity="17306.5188" maximumBatteryCapacity="35000.0000" chargingStationId="NULL" energyCharged="0.0000" energyChargedInTransit="0.0000" energyChargedStopped="0.0000" speed="13.8900" acceleration="0.0000" x="-744.1100" y="995.0500" lane="D2_0" posOnLane="255.8900" timeStopped="0"/>
        <vehicle id="veh2" energyConsumed="5.8405" totalEnergyConsumed="71.9724" totalEnergyRegenerated="13.3753" actualBatteryCapacity="17446.9029" maximumBatteryCapacity="35000.0000" chargingStationId="NULL" energyCharged="0.0000" energyChargedInTransit="0.0000" energyChargedStopped="0.0000" speed="13.8489" acceleration="0.8221" x="-764.6598" y="998.3500" lane="D2_1" posOnLane="235.3402" timeStopped="0"/>
    </timestep>
    <timestep time="25.00">
        <vehicle id="veh" energyConsumed="7.9881" totalEnergyConsumed="201.4693" totalEnergyRegenerated="0.0000" actualBatteryCapacity="17298.5307" maximumBatteryCapacity="35000.0000" chargingStationId="NULL" energyCharged="0.0000" energyChargedInTransit="0.0000" energyChargedStopped="0.0000" speed="13.8900" acceleration="0.0000" x="-730.2200" y="995.0500" lane="D2_0" posOnLane="269.7800" timeStopped="0"/>
        <vehicle id="veh2" energyConsumed="-3.4859" totalEnergyConsumed="71.9724" totalEnergyRegenerated="16.8612" actualBatteryCapacity="17450.3889" maximumBatteryCapacity="35000.0000" chargingStationId="NULL" energyCharged="0.0000" energyChargedInTransit="0.0000" energyChargedStopped="0.0000" speed="13.0616" acceleration="-0.7873" x="-751.5982" y="998.3500" lane="D2_1" posOnLane="248.4018" timeStopped="0"/>
    </timestep>
    <timestep time="26.00">
        <vehicle id="veh" energyConsumed="7.9881" totalEnergyConsumed="209.4573" totalEnergyRegenerated="0.0000" actualBatteryCapacity="17290.5427" maximumBatteryCapacity="35000.0000" chargingStationId="NULL" energyCharged="0.0000" energyChargedInTransit="0.0000" energyChargedStopped="0.0000" speed="13.8900" acceleration="0.0000" x="-716.3300" y="995.0500" lane="D2_0" posOnLane="283.6700" timeStopped="0"/>
        <vehicle id="veh2" energyConsumed="-0.3996" totalEnergyConsumed="71.9724" totalEnergyRegenerated="17.2609" actualBatteryCapacity="17450.7885" maximumBatteryCapacity="35000.0000" chargingStationId="NULL" energyCharged="0.0000" energyChargedInTransit="0.0000" energyChargedStopped="0.0000" speed="12.8287" acceleration="-0.2329" x="-738.7695" y="998.3500" lane="D2_1" posOnLane="261.2305" timeStopped="0"/>
    </timestep>
    <timestep time="27.00">
        <vehicle id="veh" energyConsumed="7.9881" totalEnergyConsumed="217.4454" totalEnergyRegenerated="0.0000" actualBatteryCapacity="17282.5546" maximumBatteryCapacity="35000.0000" chargingStationId="NULL" energyCharged="0.0000" energyChargedInTransit="0.0000" energyChargedStopped="0.0000" speed="13.8900" acceleration="0.0000" x="-702.4400" y="995.0500" lane="D2_0" posOnLane="297.5600" timeStopped="0"/>
        <vehicle id="veh2" energyConsumed="3.3361" totalEnergyConsumed="75.3085" totalEnergyRegenerated="17.2609" actualBatteryCapacity="17447.4524" maximumBatteryCapacity="35000.0000" chargingStationId="NULL" energyCharged="0.0000" energyChargedInTransit="0.0000" energyChargedStopped="0.0000" speed="13.2494" acceleration="0.4206" x="-725.5201" y="998.3500" lane="D2_1" posOnLane="274.4799" timeStopped="0"/>
    </timestep>
    <timestep time="28.00">
        <vehicle id="veh" energyConsumed="7.9881" totalEnergyConsumed="225.4334" totalEnergyRegenerated="0.0000" actualBatteryCapacity="17274.5666" maximumBatteryCapacity="35000.0000" chargingStationId="NULL" energyCharged="0.0000" energyChargedInTransit="0.0000" energyChargedStopped="0.0000" speed="13.8900" acceleration="0.0000" x="-688.5500" y="995.0500" lane="D2_0" posOnLane="311.4500" timeStopped="0"/>
        <vehicle id="veh2" energyConsumed="-2.6583" totalEnergyConsumed="75.3085" totalEnergyRegenerated="19.9192" actualBatteryCapacity="17450.1107" maximumBatteryCapacity="35000.0000" chargingStationId="NULL" energyCharged="0.0000" energyChargedInTransit="0.0000" energyChargedStopped="0.0000" speed="12.5953" acceleration="-0.6541" x="-712.9248" y="998.3500" lane="D2_1" posOnLane="287.0752" timeStopped="0"/>
    </timestep>
    <timestep time="29.00">
        <vehicle id="veh" energyConsumed="7.9881" totalEnergyConsumed="233.4215" totalEnergyRegenerated="0.0000" actualBatteryCapacity="17266.5785" maximumBatteryCapacity="35000.0000" chargingStationId="NULL" energyCharged="0.0000" energyChargedInTransit="0.0000" energyChargedStopped="0.0000" speed="13.8900" acceleration="0.0000" x="-674.6600" y="995.0500" lane="D2_0" posOnLane="325.3400" timeStopped="0"/>
        <vehicle id="veh2" energyConsumed="8.4292" totalEnergyConsumed="83.7377" totalEnergyRegenerated="19.9192" actualBatteryCapacity="17441.6815" maximumBatteryCapacity="35000.0000" chargingStationId="NULL" energyCharged="0.0000" energyChargedInTransit="0.0000" energyChargedStopped="0.0000" speed="13.8773" acceleration="1.2820" x="-699.0475" y="998.3500" lane="D2_1" posOnLane="300.9525" timeStopped="0"/>
    </timestep>
    <timestep time="30.00">
        <vehicle id="veh" energyConsumed="7.9881" totalEnergyConsumed="241.4096" totalEnergyRegenerated="0.0000" actualBatteryCapacity="17258.5904" maximumBatteryCapacity="35000.0000" chargingStationId="NULL" energyCharged="0.0000" energyChargedInTransit="0.0000" energyChargedStopped="0.0000" speed="13.8900" acceleration="0.0000" x="-660.7700" y="995.0500" lane="D2_0" posOnLane="339.2300" timeStopped="0"/>
        <vehicle id="veh2" energyConsumed="-3.5254" totalEnergyConsumed="83.7377" totalEnergyRegenerated="23.4445" actualBatteryCapacity="17445.2068" maximumBatteryCapacity="35000.0000" chargingStationId="NULL" energyCharged="0.0000" energyChargedInTransit="0.0000" energyChargedStopped="0.0000" speed="13.0839" acceleration="-0.7934" x="-685.9636" y="998.3500" lane="D2_1" posOnLane="314.0364" timeStopped="0"/>
    </timestep>
    <timestep time="31.00">
        <vehicle id="veh" energyConsumed="7.9881" totalEnergyConsumed="249.3976" totalEnergyRegenerated="0.0000" actualBatteryCapacity="17250.6024" maximumBatteryCapacity="35000.0000" chargingStationId="NULL" energyCharged="0.0000" energyChargedInTransit="0.0000" energyChargedStopped="0.0000" speed="13.8900" acceleration="0.0000" x="-646.8800" y="995.0500" lane="D2_0" posOnLane="353.1200" timeStopped="0"/>
        <vehicle id="veh2" energyConsumed="3.0435" totalEnergyConsumed="86.7813" totalEnergyRegenerated="23.4445" actualBatteryCapacity="17442.1633" maximumBatteryCapacity="35000.0000" chargingStationId="NULL" energyCharged="0.0000" energyChargedInTransit="0.0000" energyChargedStopped="0.0000" speed="13.4427" acceleration="0.3588" x="-672.5209" y="998.3500" lane="D2_1" posOnLane="327.4791" timeStopped="0"/>
    </timestep>
    <timestep time="32.00">
        <vehicle id="veh" energyConsumed="7.9881" totalEnergyConsumed="257.3857" totalEnergyRegenerated="0.0000" actualBatteryCapacity="17242.6143" maximumBatteryCapacity="35000.0000" chargingStationId="NULL" energyCharged="0.0000" energyChargedInTransit="0.0000" energyChargedStopped="0.0000" speed="13.8900" acceleration="0.0000" x="-632.9900" y="995.0500" lane="D2_0" posOnLane="367.0100" timeStopped="0"/>
        <vehicle id="veh2" energyConsumed="-1.3699" totalEnergyConsumed="86.7813" totalEnergyRegenerated="24.8145" actualBatteryCapacity="17443.5332" maximumBatteryCapacity="35000.0000" chargingStationId="NULL" energyCharged="0.0000" energyChargedInTransit="0.0000" energyChargedStopped="0.0000" speed="13.0323" acceleration="-0.4104" x="-659.4886" y="998.3500" lane="D2_1" posOnLane="340.5114" timeStopped="0"/>
    </timestep>
    <timestep time="33.00">
        <vehicle id="veh" energyConsumed="7.9881" totalEnergyConsumed="265.3738" totalEnergyRegenerated="0.0000" actualBatteryCapacity="17234.6262" maximumBatteryCapacity="35000.0000" chargingStationId="NULL" energyCharged="0.0000" energyChargedInTransit="0.0000" energyChargedStopped="0.0000" speed="13.8900" acceleration="0.0000" x="-619.1000" y="995.0500" lane="D2_0" posOnLane="380.9000" timeStopped="0"/>
        <vehicle id="veh2" energyConsumed="0.1306" totalEnergyConsumed="86.9118" totalEnergyRegenerated="24.8145" actualBatteryCapacity="17443.4026" maximumBatteryCapacity="35000.0000" chargingStationId="NULL" energyCharged="0.0000" energyChargedInTransit="0.0000" energyChargedStopped="0.0000" speed="12.8965" acceleration="-0.1358" x="-646.5921" y="998.3500" lane="D2_1" posOnLane="353.4079" timeStopped="0"/>
    </timestep>
    <timestep time="34.00">
        <vehicle id="veh" energyConsumed="7.9881" totalEnergyConsumed="273.3618" totalEnergyRegenerated="0.0000" actualBatteryCapacity="17226.6382" maximumBatteryCapacity="35000.0000" chargingStationId="NULL" energyCharged="0.0000" energyChargedInTransit="0.0000" energyChargedStopped="0.0000" speed="13.8900" acceleration="0.0000" x="-605.2100" y="995.0500" lane="D2_0" posOnLane="394.7900" timeStopped="0"/>