<?xml version="1.0" encoding="UTF-8"?>

<!-- generated on 2026-06-08T17:23:12.337805+01:00 by Eclipse SUMO sumo v1_27_0+0113-cc190734d94
This data file and the accompanying materials
are made available under the terms of the Eclipse Public License v2.0
which accompanies this distribution, and is available at
http://www.eclipse.org/legal/epl-v20.html
This file may also be made available under the following Secondary
Licenses when the conditions for such availability set forth in the Eclipse
Public License 2.0 are satisfied: GNU General Public License, version 2
or later which is available at
https://www.gnu.org/licenses/old-licenses/gpl-2.0-standalone.html
SPDX-License-Identifier: EPL-2.0 OR GPL-2.0-or-later
<sumoConfiguration xmlns:xsi="http://www.w3.org/2001/XMLSchema-instance" xsi:noNamespaceSchemaLocation="http://sumo.dlr.de/xsd/sumoConfiguration.xsd">

    <input>
        <net-file value="net.net.xml"/>
        <route-files value="input_routes.rou.xml,input_routes2.rou.xml"/>
        <additional-files value="input_additional.add.xml"/>
    </input>

    <output>
        <write-license value="true"/>
        <railsignal-block-output value="railsignal_blocks.xml"/>
        <stop-output value="stopinfos.xml"/>
    </output>

    <processing>
        <time-to-teleport.railsignal-deadlock value="200"/>
        <default.departspeed value="0"/>
        <default.departlane value="first"/>
        <default.speeddev value="0"/>
    </processing>

    <report>
        <xml-validation value="never"/>
        <duration-log.disable value="true"/>
        <no-step-log value="true"/>
    </report>

    <mesoscopic>
        <mesosim value="true"/>
        <meso-junction-control value="true"/>
    </mesoscopic>

</sumoConfiguration>
-->

<stops xmlns:xsi="http://www.w3.org/2001/XMLSchema-instance" xsi:noNamespaceSchemaLocation="http://sumo.dlr.de/xsd/stopinfo_file.xsd">
    <stopinfo id="f_0.0" type="train" edge="0" pos="292.16" parking="0" started="10.52" ended="25.00" delay="15.00" busStop="ts_0" initialPersons="0" loadedPersons="0" unloadedPersons="0" initialContainers="0" loadedContainers="0" unloadedContainers="0" blockedDuration="0.00"/>
    <stopinfo id="f_0.0" type="train" edge="4" pos="292.16" parking="0" started="76.71" ended="146.00" delay="4.00" busStop="ts_1" initialPersons="0" loadedPersons="0" unloadedPersons="0" initialContainers="0" loadedContainers="0" unloadedContainers="0" blockedDuration="0.00"/>
    <stopinfo id="f_0.1" type="train" edge="0" pos="292.16" parking="0" started="142.52" ended="157.00" delay="15.00" busStop="ts_0" initialPersons="0" loadedPersons="0" unloadedPersons="0" initialContainers="0" loadedContainers="0" unloadedContainers="0" blockedDuration="0.00"/>
    <stopinfo id="f_0.0" type="train" edge="8" pos="292.16" parking="0" started="198.19" ended="278.00" delay="4.00" busStop="ts_2" initialPersons="0" loadedPersons="0" unloadedPersons="0" initialContainers="0" loadedContainers="0" unloadedContainers="0" blockedDuration="0.00"/>
    <stopinfo id="f_0.1" type="train" edge="4" pos="292.16" parking="0" started="208.71" ended="278.00" delay="4.00" busStop="ts_1" initialPersons="0" loadedPersons="0" unloadedPersons="0" initialContainers="0" loadedContainers="0" unloadedContainers="0" blockedDuration="0.00"/>
    <stopinfo id="f_0.2" type="train" edge="0" pos="292.16" parking="0" started="274.52" ended="289.00" delay="15.00" busStop="ts_0" initialPersons="0" loadedPersons="0" unloadedPersons="0" initialContainers="0" loadedContainers="0" unloadedContainers="0" blockedDuration="0.00"/>
    <stopinfo id="f_0.0" type="train" edge="12" pos="292.16" parking="0" started="330.19" ended="410.00" delay="4.00" busStop="ts_3" initialPersons="0" loadedPersons="0" unloadedPersons="0" initialContainers="0" loadedContainers="0" unloadedContainers="0" blockedDuration="0.00"/>
    <stopinfo id="f_0.1" type="train" edge="8" pos="292.16" parking="0" started="330.19" ended="410.00" delay="4.00" busStop="ts_2" initialPersons="0" loadedPersons="0" unloadedPersons="0" initialContainers="0" loadedContainers="0" unloadedContainers="0" blockedDuration="0.00"/>
    <stopinfo id="f_0.2" type="train" edge="4" pos="292.16" parking="0" started="340.71" ended="410.00" delay="4.00" busStop="ts_1" initialPersons="0" loadedPersons="0" unloadedPersons="0" initialContainers="0" loadedContainers="0" unloadedContainers="0" blockedDuration="0.00"/>
    <stopinfo id="f_0.3" type="train" edge="0" pos="292.16" parking="0" started="406.52" ended="421.00" delay="15.00" busStop="ts_0" initialPersons="0" loadedPersons="0" unloadedPersons="0" initialContainers="0" loadedContainers="0" unloadedContainers="0" blockedDuration="0.00"/>
    <stopinfo id="f_0.0" type="train" edge="0" pos="292.16" parking="0" started="462.19" ended="542.00" delay="4.00" busStop="ts_0" initialPersons="0" loadedPersons="0" unloadedPersons="0" initialContainers="0" loadedContainers="0" unloadedContainers="0" blockedDuration="0.00"/>
    <stopinfo id="f_0.1" type="train" edge="12" pos="292.16" parking="0" started="462.19" ended="542.00" delay="4.00" busStop="ts_3" initialPersons="0" loadedPersons="0" unloadedPersons="0" initialContainers="0" loadedContainers="0" unloadedContainers="0" blockedDuration="0.00"/>
    <stopinfo id="f_0.2" type="train" edge="8" pos="292.16" parking="0" started="462.19" ended="542.00" delay="4.00" busStop="ts_2" initialPersons="0" loadedPersons="0" unloadedPersons="0" initialContainers="0" loadedContainers="0" unloadedContainers="0" blockedDuration="0.00"/>
    <stopinfo id="f_0.3" type="train" edge="4" pos="292.16" parking="0" started="472.71" ended="542.00" delay="4.00" busStop="ts_1" initialPersons="0" loadedPersons="0" unloadedPersons="0" initialContainers="0" loadedContainers="0" unloadedContainers="0" blockedDuration="0.00"/>
    <stopinfo id="f_0.0" type="train" edge="4" pos="292.16" parking="0" started="594.19" ended="674.00" delay="4.00" busStop="ts_1" initialPersons="0" loadedPersons="82" unloadedPersons="0" initialContainers="0" loadedContainers="0" unloadedContainers="0" blockedDuration="0.00"/>
    <stopinfo id="f_0.1" type="train" edge="0" pos="292.16" parking="0" started="594.19" ended="674.00" delay="4.00" busStop="ts_0" initialPersons="0" loadedPersons="82" unloadedPersons="0" initialContainers="0" loadedContainers="0" unloadedContainers="0" blockedDuration="0.00"/>
    <stopinfo id="f_0.2" type="train" edge="12" pos="292.16" parking="0" started="594.19" ended="674.00" delay="4.00" busStop="ts_3" initialPersons="0" loadedPersons="82" unloadedPersons="0" initialContainers="0" loadedContainers="0" unloadedContainers="0" blockedDuration="0.00"/>
    <stopinfo id="f_0.3" type="train" edge="8" pos="292.16" parking="0" started="594.19" ended="674.00" delay="4.00" busStop="ts_2" initialPersons="0" loadedPersons="82" unloadedPersons="0" initialContainers="0" loadedContainers="0" unloadedContainers="0" blockedDuration="0.00"/>
    <stopinfo id="f_0.0" type="train" edge="8" pos="292.16" parking="0" started="726.19" ended="806.00" delay="4.00" busStop="ts_2" initialPersons="82" loadedPersons="146" unloadedPersons="0" initialContainers="0" loadedContainers="0" unloadedContainers="0" blockedDuration="0.00"/>
    <stopinfo id="f_0.1" type="train" edge="4" pos="292.16" parking="0" started="726.19" ended="806.00" delay="4.00" busStop="ts_1" initialPersons="82" loadedPersons="146" unloadedPersons="0" initialContainers="0" loadedContainers="0" unloadedContainers="0" blockedDuration="0.00"/>
    <stopinfo id="f_0.2" type="train" edge="0" pos="292.16" parking="0" started="726.19" ended="806.00" delay="4.00" busStop="ts_0" initialPersons="82" loadedPersons="146" unloadedPersons="0" initialContainers="0" loadedContainers="0" unloadedContainers="0" blockedDuration="0.00"/>
    <stopinfo id="f_0.3" type="train" edge="12" pos="292.16" parking="0" started="726.19" ended="806.00" delay="4.00" busStop="ts_3" initialPersons="82" loadedPersons="146" unloadedPersons="0" initialContainers="0" loadedContainers="0" unloadedContainers="0" blockedDuration="0.00"/>
    <stopinfo id="f_0.0" type="train" edge="12" pos="292.16" parking="0" started="858.19" ended="938.00" delay="4.00" busStop="ts_3" initialPersons="228" loadedPersons="147" unloadedPersons="82" initialContainers="0" loadedContainers="0" unloadedContainers="0" blockedDuration="0.00"/>
    <stopinfo id="f_0.1" type="train" edge="8" pos="292.16" parking="0" started="858.19" ended="938.00" delay="4.00" busStop="ts_2" initialPersons="228" loadedPersons="147" unloadedPersons="82" initialContainers="0" loadedContainers="0" unloadedContainers="0" blockedDuration="0.00"/>
    <stopinfo id="f_0.2" type="train" edge="4" pos="292.16" parking="0" started="858.19" ended="938.00" delay="4.00" busStop="ts_1" initialPersons="228" loadedPersons="147" unloadedPersons="82" initialContainers="0" loadedContainers="0" unloadedContainers="0" blockedDuration="0.00"/>
    <stopinfo id="f_0.3" type="train" edge="0" pos="292.16" parking="0" started="858.19" ended="938.00" delay="4.00" busStop="ts_0" initialPersons="228" loadedPersons="147" unloadedPersons="82" initialContainers="0" loadedContainers="0" unloadedContainers="0" blockedDuration="0.00"/>
    <stopinfo id="f_0.0" type="train" edge="0" pos="292.16" parking="0" started="990.19" ended="1070.00" delay="4.00" busStop="ts_0" initialPersons="293" loadedPersons="147" unloadedPersons="146" initialContainers="0" loadedContainers="0" unloadedContainers="0" blockedDuration="0.00"/>
    <stopinfo id="f_0.1" type="train" edge="12" pos="292.16" parking="0" started="990.19" ended="1070.00" delay="4.00" busStop="ts_3" initialPersons="293" loadedPersons="147" unloadedPersons="146" initialContainers="0" loadedContainers="0" unloadedContainers="0" blockedDuration="0.00"/>
    <stopinfo id="f_0.2" type="train" edge="8" pos="292.16" parking="0" started="990.19" ended="1070.00" delay="4.00" busStop="ts_2" initialPersons="293" loadedPersons="147" unloadedPersons="146" initialContainers="0" loadedContainers="0" unloadedContainers="0" blockedDuration="0.00"/>
    <stopinfo id="f_0.3" type="train" edge="4" pos="292.16" parking="0" started="990.19" ended="1070.00" delay="4.00" busStop="ts_1" initialPersons="293" loadedPersons="147" unloadedPersons="146" initialContainers="0" loadedContainers="0" unloadedContainers="0" blockedDuration="0.00"/>
    <stopinfo id="f_0.0" type="train" edge="4" pos="292.16" parking="0" started="1122.19" ended="1202.00" delay="4.00" busStop="ts_1" initialPersons="294" loadedPersons="146" unloadedPersons="147" initialContainers="0" loadedContainers="0" unloadedContainers="0" blockedDuration="0.00"/>
    <stopinfo id="f_0.1" type="train" edge="0" pos="292.16" parking="0" started="1122.19" ended="1202.00" delay="4.00" busStop="ts_0" initialPersons="294" loadedPersons="146" unloadedPersons="147" initialContainers="0" loadedContainers="0" unloadedContainers="0" blockedDuration="0.00"/>
    <stopinfo id="f_0.2" type="train" edge="12" pos="292.16" parking="0" started="1122.19" ended="1202.00" delay="4.00" busStop="ts_3" initialPersons="294" loadedPersons="146" unloadedPersons="147" initialContainers="0" loadedContainers="0" unloadedContainers="0" blockedDuration="0.00"/>
    <stopinfo id="f_0.3" type="train" edge="8" pos="292.16" parking="0" started="1122.19" ended="1202.00" delay="4.00" busStop="ts_2" initialPersons="294" loadedPersons="146" unloadedPersons="147" initialContainers="0" loadedContainers="0" unloadedContainers="0" blockedDuration="0.00"/>
    <stopinfo id="f_0.0" type="train" edge="8" pos="292.16" parking="0" started="1254.19" ended="1334.00" delay="4.00" busStop="ts_2" initialPersons="293" loadedPersons="147" unloadedPersons="147" initialContainers="0" loadedContainers="0" unloadedContainers="0" blockedDuration="0.00"/>
    <stopinfo id="f_0.1" type="train" edge="4" pos="292.16" parking="0" started="1254.19" ended="1334.00" delay="4.00" busStop="ts_1" initialPersons="293" loadedPersons="147" unloadedPersons="147" initialContainers="0" loadedContainers="0" unloadedContainers="0" blockedDuration="0.00"/>
    <stopinfo id="f_0.2" type="train" edge="0" pos="292.16" parking="0" started="1254.19" ended="1334.00" delay="4.00" busStop="ts_0" initialPersons="293" loadedPersons="147" unloadedPersons="147" initialContainers="0" loadedContainers="0" unloadedContainers="0" blockedDuration="0.00"/>
    <stopinfo id="f_0.3" type="train" edge="12" pos="292.16" parking="0" started="1254.19" ended="1334.00" delay="4.00" busStop="ts_3" initialPersons="293" loadedPersons="147" unloadedPersons="147" initialContainers="0" loadedContainers="0" unloadedContainers="0" blockedDuration="0.00"/>
    <stopinfo id="f_0.0" type="train" edge="12" pos="292.16" parking="0" started="1386.19" ended="1466.00" delay="4.00" busStop="ts_3" initialPersons="293" loadedPersons="147" unloadedPersons="146" initialContainers="0" loadedContainers="0" unloadedContainers="0" blockedDuration="0.00"/>
    <stopinfo id="f_0.1" type="train" edge="8" pos="292.16" parking="0" started="1386.19" ended="1466.00" delay="4.00" busStop="ts_2" initialPersons="293" loadedPersons="147" unloadedPersons="146" initialContainers="0" loadedContainers="0" unloadedContainers="0" blockedDuration="0.00"/>
    <stopinfo id="f_0.2" type="train" edge="4" pos="292.16" parking="0" started="1386.19" ended="1466.00" delay="4.00" busStop="ts_1" initialPersons="293" loadedPersons="147" unloadedPersons="146" initialContainers="0" loadedContainers="0" unloadedContainers="0" blockedDuration="0.00"/>
    <stopinfo id="f_0.3" type="train" edge="0" pos="292.16" parking="0" started="1386.19" ended="1466.00" delay="4.00" busStop="ts_0" initialPersons="293" loadedPersons="147" unloadedPersons="146" initialContainers="0" loadedContainers="0" unloadedContainers="0" blockedDuration="0.00"/>
    <stopinfo id="f_0.0" type="train" edge="0" pos="292.16" parking="0" started="1518.19" ended="1598.00" delay="4.00" busStop="ts_0" initialPersons="294" loadedPersons="146" unloadedPersons="147" initialContainers="0" loadedContainers="0" unloadedContainers="0" blockedDuration="0.00"/>
    <stopinfo id="f_0.1" type="train" edge="12" pos="292.16" parking="0" started="1518.19" ended="1598.00" delay="4.00" busStop="ts_3" initialPersons="294" loadedPersons="146" unloadedPersons="147" initialContainers="0" loadedContainers="0" unloadedContainers="0" blockedDuration="0.00"/>
    <stopinfo id="f_0.2" type="train" edge="8" pos="292.16" parking="0" started="1518.19" ended="1598.00" delay="4.00" busStop="ts_2" initialPersons="294" loadedPersons="146" unloadedPersons="147" initialContainers="0" loadedContainers="0" unloadedContainers="0" blockedDuration="0.00"/>
    <stopinfo id="f_0.3" type="train" edge="4" pos="292.16" parking="0" started="1518.19" ended="1598.00" delay="4.00" busStop="ts_1" initialPersons="294" loadedPersons="146" unloadedPersons="147" initialContainers="0" loadedContainers="0" unloadedContainers="0" blockedDuration="0.00"/>
    <stopinfo id="f_0.0" type="train" edge="4" pos="292.16" parking="0" started="1650.19" ended="1730.00" delay="4.00" busStop="ts_1" initialPersons="293" loadedPersons="147" unloadedPersons="147" initialContainers="0" loadedContainers="0" unloadedContainers="0" blockedDuration="0.00"/>
    <stopinfo id="f_0.1" type="train" edge="0" pos="292.16" parking="0" started="1650.19" ended="1730.00" delay="4.00" busStop="ts_0" initialPersons="293" loadedPersons="147" unloadedPersons="147" initialContainers="0" loadedContainers="0" unloadedContainers="0" blockedDuration="0.00"/>
    <stopinfo id="f_0.2" type="train" edge="12" pos="292.16" parking="0" started="1650.19" ended="1730.00" delay="4.00" busStop="ts_3" initialPersons="293" loadedPersons="147" unloadedPersons="147" initialContainers="0" loadedContainers="0" unloadedContainers="0" blockedDuration="0.00"/>
    <stopinfo id="f_0.3" type="train" edge="8" pos="292.16" parking="0" started="1650.19" ended="1730.00" delay="4.00" busStop="ts_2" initialPersons="293" loadedPersons="147" unloadedPersons="147" initialContainers="0" loadedContainers="0" unloadedContainers="0" blockedDuration="0.00"/>
    <stopinfo id="f_0.0" type="train" edge="8" pos="292.16" parking="0" started="1782.19" ended="1862.00" delay="4.00" busStop="ts_2" initialPersons="293" loadedPersons="147" unloadedPersons="146" initialContainers="0" loadedContainers="0" unloadedContainers="0" blockedDuration="0.00"/>
    <stopinfo id="f_0.1" type="train" edge="4" pos="292.16" parking="0" started="1782.19" ended="1862.00" delay="4.00" busStop="ts_1" initialPersons="293" loadedPersons="147" unloadedPersons="146" initialContainers="0" loadedContainers="0" unloadedContainers="0" blockedDuration="0.00"/>
    <stopinfo id="f_0.2" type="train" edge="0" pos="292.16" parking="0" started="1782.19" ended="1862.00" delay="4.00" busStop="ts_0" initialPersons="293" loadedPersons="147" unloadedPersons="146" initialContainers="0" loadedContainers="0" unloadedContainers="0" blockedDuration="0.00"/>
    <stopinfo id="f_0.3" type="train" edge="12" pos="292.16" parking="0" started="1782.19" ended="1862.00" delay="4.00" busStop="ts_3" initialPersons="293" loadedPersons="147" unloadedPersons="146" initialContainers="0" loadedContainers="0" unloadedContainers="0" blockedDuration="0.00"/>
    <stopinfo id="f_0.0" type="train" edge="12" pos="292.16" parking="0" started="1914.19" ended="1994.00" delay="4.00" busStop="ts_3" initialPersons="294" loadedPersons="146" unloadedPersons="147" initialContainers="0" loadedContainers="0" unloadedContainers="0" blockedDuration="0.00"/>
    <stopinfo id="f_0.1" type="train" edge="8" pos="292.16" parking="0" started="1914.19" ended="1994.00" delay="4.00" busStop="ts_2" initialPersons="294" loadedPersons="146" unloadedPersons="147" initialContainers="0" loadedContainers="0" unloadedContainers="0" blockedDuration="0.00"/>
    <stopinfo id="f_0.2" type="train" edge="4" pos="292.16" parking="0" started="1914.19" ended="1994.00" delay="4.00" busStop="ts_1" initialPersons="294" loadedPersons="146" unloadedPersons="147" initialContainers="0" loadedContainers="0" unloadedContainers="0" blockedDuration="0.00"/>
    <stopinfo id="f_0.3" type="train" edge="0" pos="292.16" parking="0" started="1914.19" ended="1994.00" delay="4.00" busStop="ts_0" initialPersons="294" loadedPersons="146" unloadedPersons="147" initialContainers="0" loadedContainers="0" unloadedContainers="0" blockedDuration="0.00"/>
    <stopinfo id="f_0.0" type="train" edge="0" pos="292.16" parking="0" started="2046.19" ended="2126.00" delay="4.00" busStop="ts_0" initialPersons="293" loadedPersons="147" unloadedPersons="147" initialContainers="0" loadedContainers="0" unloadedContainers="0" blockedDuration="0.00"/>
    <stopinfo id="f_0.1" type="train" edge="12" pos="292.16" parking="0" started="2046.19" ended="2126.00" delay="4.00" busStop="ts_3" initialPersons="293" loadedPersons="147" unloadedPersons="147" initialContainers="0" loadedContainers="0" unloadedContainers="0" blockedDuration="0.00"/>
    <stopinfo id="f_0.2" type="train" edge="8" pos="292.16" parking="0" started="2046.19" ended="2126.00" delay="4.00" busStop="ts_2" initialPersons="293" loadedPersons="147" unloadedPersons="147" initialContainers="0" loadedContainers="0" unloadedContainers="0" blockedDuration="0.00"/>
    <stopinfo id="f_0.3" type="train" edge="4" pos="292.16" parking="0" started="2046.19" ended="2126.00" delay="4.00" busStop="ts_1" initialPersons="293" loadedPersons="147" unloadedPersons="147" initialContainers="0" loadedContainers="0" unloadedContainers="0" blockedDuration="0.00"/>
    <stopinfo id="f_0.0" type="train" edge="4" pos="292.16" parking="0" started="2178.19" ended="2258.00" delay="4.00" busStop="ts_1" initialPersons="293" loadedPersons="147" unloadedPersons="146" initialContainers="0" loadedContainers="0" unloadedContainers="0" blockedDuration="0.00"/>
    <stopinfo id="f_0.1" type="train" edge="0" pos="292.16" parking="0" started="2178.19" ended="2258.00" delay="4.00" busStop="ts_0" initialPersons="293" loadedPersons="147" unloadedPersons="146" initialContainers="0" loadedContainers="0" unloadedContainers="0" blockedDuration="0.00"/>
    <stopinfo id="f_0.2" type="train" edge="12" pos="292.16" parking="0" started="2178.19" ended="2258.00" delay="4.00" busStop="ts_3" initialPersons="293" loadedPersons="147" unloadedPersons="146" initialContainers="0" loadedContainers="0" unloadedContainers="0" blockedDuration="0.00"/>
    <stopinfo id="f_0.3" type="train" edge="8" pos="292.16" parking="0" started="2178.19" ended="2258.00" delay="4.00" busStop="ts_2" initialPersons="293" loadedPersons="147" unloadedPersons="146" initialContainers="0" loadedContainers="0" unloadedContainers="0" blockedDuration="0.00"/>
    <stopinfo id="f_0.0" type="train" edge="8" pos="292.16" parking="0" started="2310.19" ended="2390.00" delay="4.00" busStop="ts_2" initialPersons="294" loadedPersons="146" unloadedPersons="147" initialContainers="0" loadedContainers="0" unloadedContainers="0" blockedDuration="0.00"/>
    <stopinfo id="f_0.1" type="train" edge="4" pos="292.16" parking="0" started="2310.19" ended="2390.00" delay="4.00" busStop="ts_1" initialPersons="294" loadedPersons="146" unloadedPersons="147" initialContainers="0" loadedContainers="0" unloadedContainers="0" blockedDuration="0.00"/>
    <stopinfo id="f_0.2" type="train" edge="0" pos="292.16" parking="0" started="2310.19" ended="2390.00" delay="4.00" busStop="ts_0" initialPersons="294" loadedPersons="146" unloadedPersons="147" initialContainers="0" loadedContainers="0" unloadedContainers="0" blockedDuration="0.00"/>
    <stopinfo id="f_0.3" type="train" edge="12" pos="292.16" parking="0" started="2310.19" ended="2390.00" delay="4.00" busStop="ts_3" initialPersons="294" loadedPersons="146" unloadedPersons="147" initialContainers="0" loadedContainers="0" unloadedContainers="0" blockedDuration="0.00"/>
    <stopinfo id="f_0.0" type="train" edge="12" pos="292.16" parking="0" started="2442.19" ended="2522.00" delay="4.00" busStop="ts_3" initialPersons="293" loadedPersons="147" unloadedPersons="147" initialContainers="0" loadedContainers="0" unloadedContainers="0" blockedDuration="0.00"/>
    <stopinfo id="f_0.1" type="train" edge="8" pos="292.16" parking="0" started="2442.19" ended="2522.00" delay="4.00" busStop="ts_2" initialPersons="293" loadedPersons="147" unloadedPersons="147" initialContainers="0" loadedContainers="0" unloadedContainers="0" blockedDuration="0.00"/>
    <stopinfo id="f_0.2" type="train" edge="4" pos="292.16" parking="0" started="2442.19" ended="2522.00" delay="4.00" busStop="ts_1" initialPersons="293" loadedPersons="147" unloadedPersons="147" initialContainers="0" loadedContainers="0" unloadedContainers="0" blockedDuration="0.00"/>
    <stopinfo id="f_0.3" type="train" edge="0" pos="292.16" parking="0" started="2442.19" ended="2522.00" delay="4.00" busStop="ts_0" initialPersons="293" loadedPersons="288" unloadedPersons="147" initialContainers="0" loadedContainers="0" unloadedContainers="0" blockedDuration="0.00"/>
    <stopinfo id="f_0.0" type="train" edge="0" pos="292.16" parking="0" started="2574.19" ended="2654.00" delay="4.00" busStop="ts_0" initialPersons="293" loadedPersons="206" unloadedPersons="146" initialContainers="0" loadedContainers="0" unloadedContainers="0" blockedDuration="0.00"/>
    <stopinfo id="f_0.1" type="train" edge="12" pos="292.16" parking="0" started="2574.19" ended="2654.00" delay="4.00" busStop="ts_3" initialPersons="293" loadedPersons="147" unloadedPersons="146" initialContainers="0" loadedContainers="0" unloadedContainers="0" blockedDuration="0.00"/>
    <stopinfo id="f_0.2" type="train" edge="8" pos="292.16" parking="0" started="2574.19" ended="2654.00" delay="4.00" busStop="ts_2" initialPersons="293" loadedPersons="147" unloadedPersons="146" initialContainers="0" loadedContainers="0" unloadedContainers="0" blockedDuration="0.00"/>
    <stopinfo id="f_0.3" type="train" edge="4" pos="292.16" parking="0" started="2574.19" ended="2654.00" delay="4.00" busStop="ts_1" initialPersons="434" loadedPersons="146" unloadedPersons="146" initialContainers="0" loadedContainers="0" unloadedContainers="0" blockedDuration="0.00"/>
    <stopinfo id="f_0.0" type="train" edge="4" pos="292.16" parking="0" started="2706.19" ended="2786.00" delay="4.00" busStop="ts_1" initialPersons="353" loadedPersons="147" unloadedPersons="147" initialContainers="0" loadedContainers="0" unloadedContainers="0" blockedDuration="0.00"/>
    <stopinfo id="f_0.1" type="train" edge="0" pos="292.16" parking="0" started="2706.19" ended="2786.00" delay="4.00" busStop="ts_0" initialPersons="294" loadedPersons="146" unloadedPersons="147" initialContainers="0" loadedContainers="0" unloadedContainers="0" blockedDuration="0.00"/>
    <stopinfo id="f_0.2" type="train" edge="12" pos="292.16" parking="0" started="2706.19" ended="2786.00" delay="4.00" busStop="ts_3" initialPersons="294" loadedPersons="146" unloadedPersons="147" initialContainers="0" loadedContainers="0" unloadedContainers="0" blockedDuration="0.00"/>
    <stopinfo id="f_0.3" type="train" edge="8" pos="292.16" parking="0" started="2706.19" ended="2786.00" delay="4.00" busStop="ts_2" initialPersons="434" loadedPersons="146" unloadedPersons="288" initialContainers="0" loadedContainers="0" unloadedContainers="0" blockedDuration="0.00"/>
    <stopinfo id="f_0.0" type="train" edge="8" pos="292.16" parking="0" started="2838.19" ended="2918.00" delay="4.00" busStop="ts_2" initialPersons="353" loadedPersons="147" unloadedPersons="206" initialContainers="0" loadedContainers="0" unloadedContainers="0" blockedDuration="0.00"/>
    <stopinfo id="f_0.1" type="train" edge="4" pos="292.16" parking="0" started="2838.19" ended="2918.00" delay="4.00" busStop="ts_1" initialPersons="293" loadedPersons="147" unloadedPersons="147" initialContainers="0" loadedContainers="0" unloadedContainers="0" blockedDuration="0.00"/>
    <stopinfo id="f_0.2" type="train" edge="0" pos="292.16" parking="0" started="2838.19" ended="2918.00" delay="4.00" busStop="ts_0" initialPersons="293" loadedPersons="147" unloadedPersons="147" initialContainers="0" loadedContainers="0" unloadedContainers="0" blockedDuration="0.00"/>
    <stopinfo id="f_0.3" type="train" edge="12" pos="292.16" parking="0" started="2838.19" ended="2918.00" delay="4.00" busStop="ts_3" initialPersons="292" loadedPersons="147" unloadedPersons="146" initialContainers="0" loadedContainers="0" unloadedContainers="0" blockedDuration="0.00"/>
    <stopinfo id="f_0.0" type="train" edge="12" pos="292.16" parking="0" started="2970.19" ended="3050.00" delay="4.00" busStop="ts_3" initialPersons="294" loadedPersons="147" unloadedPersons="147" initialContainers="0" loadedContainers="0" unloadedContainers="0" blockedDuration="0.00"/>
    <stopinfo id="f_0.1" type="train" edge="8" pos="292.16" parking="0" started="2970.19" ended="3050.00" delay="4.00" busStop="ts_2" initialPersons="293" loadedPersons="147" unloadedPersons="146" initialContainers="0" loadedContainers="0" unloadedContainers="0" blockedDuration="0.00"/>
    <stopinfo id="f_0.2" type="train" edge="4" pos="292.16" parking="0" started="2970.19" ended="3050.00" delay="4.00" busStop="ts_1" initialPersons="293" loadedPersons="147" unloadedPersons="146" initialContainers="0" loadedContainers="0" unloadedContainers="0" blockedDuration="0.00"/>
    <stopinfo id="f_0.3" type="train" edge="0" pos="292.16" parking="0" started="2970.19" ended="3050.00" delay="4.00" busStop="ts_0" initialPersons="293" loadedPersons="147" unloadedPersons="146" initialContainers="0" loadedContainers="0" unloadedContainers="0" blockedDuration="0.00"/>
    <stopinfo id="f_0.0" type="train" edge="0" pos="292.16" parking="0" started="3102.19" ended="3182.00" delay="4.00" busStop="ts_0" initialPersons="294" loadedPersons="146" unloadedPersons="147" initialContainers="0" loadedContainers="0" unloadedContainers="0" blockedDuration="0.00"/>
    <stopinfo id="f_0.1" type="train" edge="12" pos="292.16" parking="0" started="3102.19" ended="3182.00" delay="4.00" busStop="ts_3" initialPersons="294" loadedPersons="146" unloadedPersons="147" initialContainers="0" loadedContainers="0" unloadedContainers="0" blockedDuration="0.00"/>
    <stopinfo id="f_0.2" type="train" edge="8" pos="292.16" parking="0" started="3102.19" ended="3182.00" delay="4.00" busStop="ts_2" initialPersons="294" loadedPersons="146" unloadedPersons="147" initialContainers="0" loadedContainers="0" unloadedContainers="0" blockedDuration="0.00"/>
    <stopinfo id="f_0.3" type="train" edge="4" pos="292.16" parking="0" started="3102.19" ended="3182.00" delay="4.00" busStop="ts_1" initialPersons="294" loadedPersons="146" unloadedPersons="147" initialContainers="0" loadedContainers="0" unloadedContainers="0" blockedDuration="0.00"/>
    <stopinfo id="f_0.0" type="train" edge="4" pos="292.16" parking="0" started="3234.19" ended="3314.00" delay="4.00" busStop="ts_1" initialPersons="293" loadedPersons="147" unloadedPersons="147" initialContainers="0" loadedContainers="0" unloadedContainers="0" blockedDuration="0.00"/>
    <stopinfo id="f_0.1" type="train" edge="0" pos="292.16" parking="0" started="3234.19" ended="3314.00" delay="4.00" busStop="ts_0" initialPersons="293" loadedPersons="147" unloadedPersons="147" initialContainers="0" loadedContainers="0" unloadedContainers="0" blockedDuration="0.00"/>
    <stopinfo id="f_0.2" type="train" edge="12" pos="292.16" parking="0" started="3234.19" ended="3314.00" delay="4.00" busStop="ts_3" initialPersons="293" loadedPersons="147" unloadedPersons="147" initialContainers="0" loadedContainers="0" unloadedContainers="0" blockedDuration="0.00"/>
    <stopinfo id="f_0.3" type="train" edge="8" pos="292.16" parking="0" started="3234.19" ended="3314.00" delay="4.00" busStop="ts_2" initialPersons="293" loadedPersons="147" unloadedPersons="147" initialContainers="0" loadedContainers="0" unloadedContainers="0" blockedDuration="0.00"/>