<routes>
    <vType id="ignorePeds" sigma="0" jmIgnoreJunctionFoeProb="0"/>

    <personFlow id="p" begin="0" end="100" period="5.5" departPos="-10">
        <walk edges="WC NC" arrivalPos="-10"/>
    </personFlow>

    <flow id="v" type="ignorePeds" begin="0" end="100" period="9">
        <route edges="WC CE"/>
    </flow>

</routes>
