<?xml version="1.0" encoding="UTF-8"?>

<!-- generated on 2024-11-01 10:31:58 by Eclipse SUMO sumo Version v1_21_0+0544-8c77a935d25
This data file and the accompanying materials
are made available under the terms of the Eclipse Public License v2.0
which accompanies this distribution, and is available at
http://www.eclipse.org/legal/epl-v20.html
This file may also be made available under the following Secondary
Licenses when the conditions for such availability set forth in the Eclipse
Public License 2.0 are satisfied: GNU General Public License, version 2
or later which is available at
https://www.gnu.org/licenses/old-licenses/gpl-2.0-standalone.html
SPDX-License-Identifier: EPL-2.0 OR GPL-2.0-or-later
<sumoConfiguration xmlns:xsi="http://www.w3.org/2001/XMLSchema-instance" xsi:noNamespaceSchemaLocation="http://sumo.dlr.de/xsd/sumoConfiguration.xsd">

    <input>
        <net-file value="net.net.xml"/>
        <route-files value="input_routes.rou.xml"/>
    </input>

    <output>
        <write-license value="true"/>
        <railsignal-block-output value="railsignal_blocks.xml"/>
        <railsignal-vehicle-output value="railsignal_vehicles.xml"/>
    </output>

    <processing>
        <time-to-teleport.railsignal-deadlock value="200"/>
        <default.speeddev value="0"/>
        <use-stop-ended value="true"/>
    </processing>

    <report>
        <xml-validation value="never"/>
        <duration-log.disable value="true"/>
        <no-step-log value="true"/>
    </report>

    <mesoscopic>
        <mesosim value="true"/>
        <meso-junction-control value="true"/>
    </mesoscopic>

</sumoConfiguration>
-->

<railsignal-vehicle-output>
    <railSignal id="J1">
        <link linkIndex="0" from="E0_0" to="E1_0">
            <driveWay id="J1.0">
                <entry id="v0" time="8.00" reason="1"/>
                <exit id="v0" time="15.00" reason="1"/>
                <entry id="v1" time="1008.00" reason="1"/>
                <exit id="v1" time="1015.00" reason="1"/>
            </driveWay>
        </link>
    </railSignal>
    <railSignal id="J2">
        <link linkIndex="0" from="E1_0" to="E2_0">
            <driveWay id="J2.0">
                <entry id="v0" time="15.00" reason="1"/>
                <exit id="v0" time="29.00" reason="9"/>
                <entry id="v1" time="1015.00" reason="1"/>
                <exit id="v1" time="1029.00" reason="9"/>
            </driveWay>
            <subDriveWay id="J2.0.0"/>
        </link>
    </railSignal>
    <departJunction id="J5">
        <driveWay id="J5.d0">
            <entry id="v2" time="1000.00" reason="0"/>
            <exit id="v2" time="1029.00" reason="9"/>
        </driveWay>
        <subDriveWay id="J5.d0.0"/>
        <subDriveWay id="J5.d0.1"/>
    </departJunction>
    <departJunction id="J0">
        <driveWay id="J0.d0">
            <entry id="v0" time="0.00" reason="0"/>
            <exit id="v0" time="8.00" reason="1"/>
            <entry id="v1" time="1000.00" reason="0"/>
            <exit id="v1" time="1008.00" reason="1"/>
        </driveWay>
    </departJunction>
</railsignal-vehicle-output>
