<?xml version="1.0" encoding="UTF-8"?>

<!-- generated on 2025-08-01 13:22:20 by Eclipse SUMO netconvert Version v1_24_0+0105-e209ab84cb0
This data file and the accompanying materials
are made available under the terms of the Eclipse Public License v2.0
which accompanies this distribution, and is available at
http://www.eclipse.org/legal/epl-v20.html
This file may also be made available under the following Secondary
Licenses when the conditions for such availability set forth in the Eclipse
Public License 2.0 are satisfied: GNU General Public License, version 2
or later which is available at
https://www.gnu.org/licenses/old-licenses/gpl-2.0-standalone.html
SPDX-License-Identifier: EPL-2.0 OR GPL-2.0-or-later
<netconvertConfiguration xmlns:xsi="http://www.w3.org/2001/XMLSchema-instance" xsi:noNamespaceSchemaLocation="http://sumo.dlr.de/xsd/netconvertConfiguration.xsd">

    <input>
        <opendrive-files value="opendrive.xodr"/>
    </input>

    <output>
        <write-license value="true"/>
        <output.original-names value="true"/>
    </output>

    <processing>
        <offset.disable-normalization value="true"/>
    </processing>

    <junctions>
        <no-turnarounds.except-deadend value="true"/>
    </junctions>

    <formats>
        <opendrive.import-all-lanes value="true"/>
        <opendrive.internal-shapes value="true"/>
    </formats>

    <report>
        <xml-validation value="never"/>
    </report>

</netconvertConfiguration>
-->

<net version="1.20" junctionCornerDetail="5" rectangularLaneCut="true" limitTurnSpeed="5.50" xmlns:xsi="http://www.w3.org/2001/XMLSchema-instance" xsi:noNamespaceSchemaLocation="http://sumo.dlr.de/xsd/net_file.xsd">

    <location netOffset="0.00,0.00" convBoundary="-165.11,-201.78,222.29,100.68" origBoundary="-165.11,-201.78,222.29,100.68" projParameter="!"/>

    <type id="driving" priority="1" speed="13.89" disallow="pedestrian tram rail_urban rail rail_electric rail_fast ship container cable_car subway aircraft wheelchair scooter drone" width="3.65"/>

    <edge id=":1#1_0" function="internal">
        <lane id=":1#1_0_0" index="0" allow="emergency authority" speed="13.89" length="3.05" width="1.80" shape="-20.23,-172.18 -20.10,-173.09 -19.81,-173.68 -19.52,-174.28 -19.40,-175.18"/>
        <lane id=":1#1_0_1" index="1" disallow="pedestrian tram rail_urban rail rail_electric rail_fast ship container cable_car subway aircraft wheelchair scooter drone" speed="13.89" length="3.05" width="3.50" shape="-16.73,-172.20 -16.75,-175.20"/>
        <lane id=":1#1_0_2" index="2" disallow="all" speed="1.39" length="3.05" width="3.50" shape="-13.23,-172.21 -13.25,-175.21"/>
    </edge>
    <edge id=":1#1_3" function="internal">
        <lane id=":1#1_3_0" index="0" allow="emergency authority" speed="13.89" length="3.08" width="3.50" shape="-7.10,-175.24 -6.96,-174.33 -6.67,-173.74 -6.37,-173.15 -6.23,-172.24"/>
        <lane id=":1#1_3_1" index="1" disallow="pedestrian tram rail_urban rail rail_electric rail_fast ship container cable_car subway aircraft wheelchair scooter drone" speed="13.89" length="3.08" width="3.50" shape="-9.75,-175.23 -9.73,-172.23"/>
    </edge>
    <edge id=":1#2_0" function="internal">
        <lane id=":1#2_0_0" index="0" disallow="pedestrian tram rail_urban rail rail_electric rail_fast ship container cable_car subway aircraft wheelchair scooter drone" speed="13.89" length="8.54" width="3.50" shape="-6.17,-150.63 -5.88,-148.08 -5.25,-146.38 -4.65,-144.68 -4.44,-142.14"/>
        <lane id=":1#2_0_1" index="1" allow="emergency authority" speed="13.89" length="8.54" width="1.80" shape="-9.67,-150.62 -9.79,-148.15 -10.07,-146.47 -10.39,-144.80 -10.58,-142.33"/>
    </edge>
    <edge id=":1#2_2" function="internal">
        <lane id=":1#2_2_0" index="0" disallow="pedestrian tram rail_urban rail rail_electric rail_fast ship container cable_car subway aircraft wheelchair scooter drone" speed="13.89" length="8.03" width="3.50" shape="-20.23,-142.63 -20.17,-150.59"/>
        <lane id=":1#2_2_1" index="1" disallow="pedestrian tram rail_urban rail rail_electric rail_fast ship container cable_car subway aircraft wheelchair scooter drone" speed="13.89" length="8.03" width="3.50" shape="-16.73,-142.52 -16.67,-150.60"/>
    </edge>
    <edge id=":1#3_0" function="internal">
        <lane id=":1#3_0_0" index="0" disallow="pedestrian tram rail_urban rail rail_electric rail_fast ship container cable_car subway aircraft wheelchair scooter drone" speed="13.89" length="3.44" width="3.50" shape="-5.18,-127.90 -4.99,-126.93 -4.45,-126.34 -3.90,-125.76 -3.70,-124.79"/>
        <lane id=":1#3_0_1" index="1" disallow="pedestrian tram rail_urban rail rail_electric rail_fast ship container cable_car subway aircraft wheelchair scooter drone" speed="13.89" length="3.44" width="3.50" shape="-8.68,-128.14 -8.48,-127.17 -7.94,-126.58 -7.39,-126.00 -7.19,-125.03"/>
        <lane id=":1#3_0_2" index="2" allow="emergency authority" speed="13.89" length="3.44" width="3.50" shape="-11.32,-128.32 -11.25,-127.41 -11.00,-126.80 -10.75,-126.19 -10.68,-125.27"/>
    </edge>
    <edge id=":1#3_3" function="internal">
        <lane id=":1#3_3_0" index="0" disallow="pedestrian tram rail_urban rail rail_electric rail_fast ship container cable_car subway aircraft wheelchair scooter drone" speed="13.89" length="3.00" width="3.50" shape="-21.15,-126.00 -20.94,-129.00"/>
        <lane id=":1#3_3_1" index="1" disallow="pedestrian tram rail_urban rail rail_electric rail_fast ship container cable_car subway aircraft wheelchair scooter drone" speed="13.89" length="3.00" width="3.50" shape="-17.66,-125.76 -17.45,-128.75"/>
        <lane id=":1#3_3_2" index="2" disallow="all" speed="1.39" length="3.00" width="3.50" shape="-14.17,-125.51 -13.96,-128.51"/>
    </edge>
    <edge id=":1#4_0" function="internal">
        <lane id=":1#4_0_0" index="0" disallow="pedestrian tram rail_urban rail rail_electric rail_fast ship container cable_car subway aircraft wheelchair scooter drone" speed="13.89" length="3.04" width="3.50" shape="-21.92,-106.36 -21.91,-109.41"/>
        <lane id=":1#4_0_1" index="1" disallow="pedestrian tram rail_urban rail rail_electric rail_fast ship container cable_car subway aircraft wheelchair scooter drone" speed="13.89" length="3.04" width="3.50" shape="-18.42,-106.36 -18.41,-109.39"/>
    </edge>
    <edge id=":1#4_2" function="internal">
        <lane id=":1#4_2_0" index="0" disallow="pedestrian tram rail_urban rail rail_electric rail_fast ship container cable_car subway aircraft wheelchair scooter drone" speed="13.89" length="2.97" width="3.50" shape="-4.41,-109.32 -4.42,-106.36"/>
        <lane id=":1#4_2_1" index="1" disallow="pedestrian tram rail_urban rail rail_electric rail_fast ship container cable_car subway aircraft wheelchair scooter drone" speed="13.89" length="2.97" width="3.50" shape="-7.91,-109.33 -7.92,-106.36"/>
        <lane id=":1#4_2_2" index="2" disallow="pedestrian tram rail_urban rail rail_electric rail_fast ship container cable_car subway aircraft wheelchair scooter drone" speed="13.89" length="2.97" width="3.50" shape="-11.41,-109.35 -11.42,-106.36"/>
    </edge>
    <edge id=":1.begin_0" function="internal">
        <lane id=":1.begin_0_0" index="0" disallow="pedestrian tram rail_urban rail rail_electric rail_fast ship container cable_car subway aircraft wheelchair scooter drone" speed="4.93" length="10.22" width="3.50" shape="-16.82,-201.78 -15.07,-204.41 -13.32,-205.28 -11.57,-204.41 -9.82,-201.78"/>
    </edge>
    <edge id=":1000000_0" function="internal">
        <lane id=":1000000_0_0" index="0" disallow="pedestrian tram rail_urban rail rail_electric rail_fast ship container cable_car subway aircraft wheelchair scooter drone" speed="13.89" length="125.79" width="3.50" shape="89.87,-30.89 84.10,-30.90 82.27,-30.86 80.42,-30.78 78.53,-30.66 76.62,-30.52 74.69,-30.34 72.73,-30.14 70.75,-29.90 68.76,-29.62 66.75,-29.32 64.73,-28.99 62.70,-28.62 60.65,-28.23 58.61,-27.80 56.55,-27.34 54.50,-26.85 52.44,-26.33 50.39,-25.78 48.34,-25.20 46.29,-24.59 44.26,-23.95 42.23,-23.27 40.22,-22.57 38.22,-21.84 36.23,-21.08 34.27,-20.29 32.33,-19.47 30.41,-18.62 28.51,-17.74 26.64,-16.83 24.81,-15.90 23.00,-14.93 21.22,-13.94 19.49,-12.92 17.79,-11.87 16.12,-10.79 14.51,-9.69 12.93,-8.56 11.40,-7.40 9.92,-6.22 8.49,-5.01 7.11,-3.77 5.79,-2.51 4.52,-1.22 3.31,0.09 2.16,1.43 1.07,2.79 0.05,4.17 -0.91,5.58 -1.81,7.02 -2.63,8.48 -3.38,9.96 -4.06,11.46 -4.67,12.99 -5.20,14.54 -5.66,16.12 -6.04,17.72 -6.33,19.35 -6.55,21.00 -6.68,22.68 -6.80,28.91">
            <param key="origId" value="1000006_-1"/>
        </lane>
    </edge>
    <edge id=":1000000_1" function="internal">
        <lane id=":1000000_1_0" index="0" disallow="pedestrian tram rail_urban rail rail_electric rail_fast ship container cable_car subway aircraft wheelchair scooter drone" speed="13.89" length="195.72" width="3.50" shape="89.87,-30.89 81.89,-30.92 77.89,-30.93 73.89,-30.95 69.89,-30.98 65.89,-31.01 61.89,-31.05 57.89,-31.09 53.89,-31.14 49.89,-31.20 45.89,-31.26 41.89,-31.33 37.90,-31.40 33.90,-31.47 29.90,-31.55 25.91,-31.63 21.91,-31.72 17.92,-31.81 13.92,-31.91 9.93,-32.00 5.93,-32.10 1.94,-32.20 -6.05,-32.41 -14.03,-32.63 -22.02,-32.85 -37.98,-33.30 -45.96,-33.52 -53.94,-33.73 -61.92,-33.94 -65.90,-34.05 -69.89,-34.15 -73.88,-34.24 -77.87,-34.34 -81.85,-34.43 -85.84,-34.52 -89.83,-34.60 -93.81,-34.68 -97.80,-34.76 -105.81,-34.91">
            <param key="origId" value="1000004_-2"/>
        </lane>
        <lane id=":1000000_1_1" index="1" disallow="pedestrian tram rail_urban rail rail_electric rail_fast ship container cable_car subway aircraft wheelchair scooter drone" speed="13.89" length="195.72" width="3.50" shape="89.94,-34.39 81.89,-34.42 77.90,-34.43 73.90,-34.45 69.91,-34.48 65.92,-34.51 61.92,-34.55 57.93,-34.59 53.93,-34.64 49.94,-34.70 45.95,-34.76 41.95,-34.83 37.96,-34.90 33.97,-34.97 29.97,-35.05 25.98,-35.13 21.99,-35.22 18.00,-35.31 14.00,-35.41 10.01,-35.50 6.02,-35.60 2.03,-35.70 -5.96,-35.91 -13.94,-36.13 -21.92,-36.35 -37.88,-36.79 -45.86,-37.02 -53.85,-37.23 -61.83,-37.44 -65.82,-37.55 -69.81,-37.65 -73.80,-37.74 -77.78,-37.84 -81.77,-37.93 -85.76,-38.02 -89.75,-38.10 -93.74,-38.18 -97.73,-38.26 -105.74,-38.41">
            <param key="origId" value="1000004_-1"/>
        </lane>
    </edge>
    <edge id=":1000000_3" function="internal">
        <lane id=":1000000_3_0" index="0" disallow="pedestrian tram rail_urban rail rail_electric rail_fast ship container cable_car subway aircraft wheelchair scooter drone" speed="13.89" length="133.79" width="3.50" shape="90.02,-37.89 84.02,-37.92 82.11,-37.93 80.15,-37.94 78.15,-37.96 76.11,-37.98 74.03,-38.01 71.92,-38.05 69.77,-38.10 67.60,-38.16 65.40,-38.23 63.18,-38.31 60.94,-38.40 58.68,-38.51 56.40,-38.63 54.11,-38.77 51.81,-38.93 49.50,-39.11 47.18,-39.31 44.86,-39.53 42.54,-39.77 40.22,-40.04 37.91,-40.34 35.60,-40.66 33.30,-41.01 31.01,-41.40 28.74,-41.82 26.48,-42.27 24.24,-42.75 22.02,-43.28 19.83,-43.85 17.66,-44.45 15.51,-45.10 13.40,-45.80 11.32,-46.55 9.27,-47.34 7.27,-48.19 5.30,-49.10 3.37,-50.06 1.49,-51.09 -0.35,-52.18 -2.13,-53.34 -3.85,-54.57 -5.52,-55.88 -7.12,-57.27 -8.64,-58.74 -10.09,-60.29 -11.46,-61.93 -12.73,-63.66 -13.90,-65.48 -14.95,-67.38 -15.89,-69.36 -16.69,-71.42 -17.36,-73.55 -17.88,-75.75 -18.26,-78.00 -18.49,-80.30 -18.55,-86.72">
            <param key="origId" value="1000003_3"/>
        </lane>
    </edge>
    <edge id=":1000000_4" function="internal">
        <lane id=":1000000_4_0" index="0" disallow="pedestrian tram rail_urban rail rail_electric rail_fast ship container cable_car subway aircraft wheelchair scooter drone" speed="13.89" length="113.04" width="3.50" shape="-4.55,-86.65 -4.51,-81.18 -4.38,-79.79 -4.16,-78.45 -3.86,-77.16 -3.48,-75.92 -3.03,-74.72 -2.50,-73.55 -1.89,-72.42 -1.21,-71.31 -0.44,-70.23 0.40,-69.18 1.32,-68.15 2.32,-67.14 3.40,-66.16 4.56,-65.20 5.79,-64.27 7.10,-63.37 8.47,-62.49 9.92,-61.64 11.43,-60.82 13.00,-60.03 14.64,-59.26 16.33,-58.53 18.08,-57.82 19.88,-57.15 21.73,-56.50 23.62,-55.89 25.55,-55.30 27.52,-54.74 29.53,-54.21 31.57,-53.71 33.64,-53.23 35.73,-52.79 37.85,-52.36 39.98,-51.97 42.14,-51.60 44.30,-51.25 46.48,-50.93 48.67,-50.63 50.86,-50.36 53.05,-50.10 55.24,-49.87 57.42,-49.66 59.60,-49.47 61.77,-49.29 63.92,-49.14 66.06,-49.00 68.18,-48.88 70.27,-48.78 72.34,-48.69 74.39,-48.61 76.40,-48.55 78.38,-48.50 80.32,-48.46 82.22,-48.44 84.08,-48.42 90.23,-48.38">
            <param key="origId" value="1000003_-2"/>
        </lane>
        <lane id=":1000000_4_1" index="1" disallow="pedestrian tram rail_urban rail rail_electric rail_fast ship container cable_car subway aircraft wheelchair scooter drone" speed="13.89" length="118.48" width="3.50" shape="-8.05,-86.67 -8.01,-80.96 -7.85,-79.34 -7.60,-77.77 -7.24,-76.26 -6.80,-74.79 -6.26,-73.37 -5.64,-72.00 -4.92,-70.67 -4.12,-69.38 -3.24,-68.13 -2.27,-66.92 -1.22,-65.75 -0.09,-64.61 1.11,-63.52 2.39,-62.46 3.74,-61.44 5.16,-60.45 6.64,-59.51 8.19,-58.59 9.81,-57.72 11.48,-56.88 13.20,-56.07 14.98,-55.30 16.81,-54.56 18.69,-53.86 20.61,-53.19 22.57,-52.55 24.56,-51.94 26.60,-51.36 28.66,-50.82 30.76,-50.30 32.88,-49.82 35.02,-49.36 37.19,-48.93 39.37,-48.52 41.56,-48.15 43.77,-47.79 45.99,-47.47 48.21,-47.16 50.44,-46.88 52.66,-46.63 54.88,-46.39 57.10,-46.17 59.30,-45.98 61.50,-45.80 63.68,-45.65 65.84,-45.51 67.99,-45.39 70.11,-45.28 72.20,-45.19 74.27,-45.11 76.30,-45.05 78.30,-45.00 80.26,-44.96 82.18,-44.94 84.06,-44.92 90.16,-44.88">
            <param key="origId" value="1000003_-1"/>
        </lane>
    </edge>
    <edge id=":1000000_6" function="internal">
        <lane id=":1000000_6_0" index="0" disallow="pedestrian tram rail_urban rail rail_electric rail_fast ship container cable_car subway aircraft wheelchair scooter drone" speed="13.89" length="115.50" width="3.50" shape="-8.05,-86.67 -8.06,-80.64 -8.07,-78.64 -8.08,-76.64 -8.09,-74.64 -8.11,-72.64 -8.13,-70.64 -8.16,-68.65 -8.19,-66.65 -8.22,-64.65 -8.26,-62.66 -8.29,-60.67 -8.33,-58.67 -8.38,-56.68 -8.42,-54.69 -8.47,-52.69 -8.57,-48.72 -8.68,-44.74 -8.79,-40.77 -8.91,-36.80 -9.38,-20.94 -9.50,-16.99 -9.61,-13.04 -9.72,-9.09 -9.82,-5.13 -9.86,-3.16 -9.91,-1.19 -9.95,0.78 -9.99,2.75 -10.03,4.72 -10.06,6.69 -10.09,8.66 -10.12,10.62 -10.15,12.59 -10.17,14.56 -10.19,16.52 -10.20,18.49 -10.21,20.45 -10.22,22.42 -10.29,28.80">
            <param key="origId" value="1000001_4"/>
        </lane>
    </edge>
    <edge id=":1000000_7" function="internal">
        <lane id=":1000000_7_0" index="0" disallow="pedestrian tram rail_urban rail rail_electric rail_fast ship container cable_car subway aircraft wheelchair scooter drone" speed="13.89" length="20.81" width="3.50" shape="-11.55,-86.68 -11.64,-80.19 -11.91,-77.78 -12.36,-75.43 -12.98,-73.15 -13.77,-70.95 -14.72,-68.83 -15.82,-66.81 -15.91,-66.66">
            <param key="origId" value="1000002_4"/>
        </lane>
    </edge>
    <edge id=":1000000_16" function="internal">
        <lane id=":1000000_16_0" index="0" disallow="pedestrian tram rail_urban rail rail_electric rail_fast ship container cable_car subway aircraft wheelchair scooter drone" speed="13.89" length="97.76" width="3.50" shape="-15.91,-66.66 -17.05,-64.89 -18.41,-63.08 -19.87,-61.36 -21.43,-59.75 -23.08,-58.23 -24.80,-56.80 -26.59,-55.45 -28.45,-54.19 -30.37,-52.99 -32.34,-51.87 -34.36,-50.81 -36.42,-49.81 -38.53,-48.86 -40.69,-47.97 -42.87,-47.13 -45.10,-46.33 -47.35,-45.58 -49.63,-44.88 -51.94,-44.22 -54.27,-43.59 -56.62,-43.01 -58.98,-42.47 -61.35,-41.96 -63.73,-41.49 -66.12,-41.06 -68.51,-40.66 -70.89,-40.29 -73.26,-39.96 -75.63,-39.66 -77.98,-39.40 -80.31,-39.16 -82.62,-38.96 -84.90,-38.78 -87.15,-38.64 -89.37,-38.52 -91.55,-38.43 -93.68,-38.36 -95.77,-38.32 -97.81,-38.30 -99.79,-38.31 -105.74,-38.41">
            <param key="origId" value="1000002_4"/>
        </lane>
    </edge>
    <edge id=":1000000_8" function="internal">
        <lane id=":1000000_8_0" index="0" disallow="pedestrian tram rail_urban rail rail_electric rail_fast ship container cable_car subway aircraft wheelchair scooter drone" speed="13.89" length="100.67" width="3.50" shape="-105.45,-52.41 -99.64,-52.30 -97.75,-52.29 -95.81,-52.29 -93.82,-52.30 -91.78,-52.32 -89.71,-52.37 -87.60,-52.43 -85.46,-52.51 -83.30,-52.60 -81.11,-52.72 -78.90,-52.86 -76.68,-53.03 -74.45,-53.21 -72.22,-53.43 -69.98,-53.67 -67.74,-53.93 -65.52,-54.23 -63.30,-54.56 -61.09,-54.91 -58.91,-55.30 -56.75,-55.72 -54.62,-56.18 -52.51,-56.67 -50.45,-57.20 -48.42,-57.76 -46.44,-58.36 -44.51,-59.00 -42.63,-59.68 -40.81,-60.41 -39.05,-61.17 -37.36,-61.97 -35.74,-62.82 -34.19,-63.71 -32.71,-64.64 -31.32,-65.61 -30.02,-66.63 -28.81,-67.69 -27.68,-68.80 -26.66,-69.95 -25.72,-71.15 -24.89,-72.39 -24.16,-73.69 -23.54,-75.03 -23.02,-76.43 -22.61,-77.89 -22.31,-79.40 -22.12,-80.99 -22.05,-86.74">
            <param key="origId" value="1000002_-1"/>
        </lane>
    </edge>
    <edge id=":1000000_9" function="internal">
        <lane id=":1000000_9_0" index="0" disallow="pedestrian tram rail_urban rail rail_electric rail_fast ship container cable_car subway aircraft wheelchair scooter drone" speed="13.89" length="195.76" width="3.50" shape="-105.52,-48.91 -97.54,-48.76 -93.54,-48.70 -89.54,-48.64 -85.54,-48.59 -81.54,-48.54 -77.54,-48.49 -73.54,-48.45 -69.54,-48.41 -65.54,-48.38 -61.54,-48.35 -53.55,-48.30 -45.56,-48.26 -37.57,-48.23 -21.59,-48.21 -13.61,-48.21 -5.63,-48.21 2.35,-48.23 6.34,-48.24 10.32,-48.24 14.31,-48.25 18.30,-48.27 22.28,-48.28 26.26,-48.29 30.24,-48.30 34.23,-48.31 38.21,-48.33 42.18,-48.34 46.16,-48.35 50.14,-48.36 54.12,-48.37 58.09,-48.38 62.06,-48.39 66.04,-48.40 70.01,-48.41 73.98,-48.41 77.95,-48.42 81.92,-48.42 90.23,-48.38">
            <param key="origId" value="1000004_4"/>
        </lane>
        <lane id=":1000000_9_1" index="1" disallow="pedestrian tram rail_urban rail rail_electric rail_fast ship container cable_car subway aircraft wheelchair scooter drone" speed="13.89" length="195.76" width="3.50" shape="-105.59,-45.41 -97.60,-45.26 -93.61,-45.20 -89.61,-45.14 -85.61,-45.09 -81.61,-45.04 -77.62,-44.99 -73.62,-44.95 -69.63,-44.91 -65.63,-44.88 -61.63,-44.85 -53.64,-44.80 -45.65,-44.76 -37.66,-44.73 -21.69,-44.71 -13.70,-44.71 -5.72,-44.72 2.26,-44.73 6.25,-44.74 10.24,-44.75 14.23,-44.76 18.21,-44.77 22.20,-44.78 26.19,-44.79 30.17,-44.80 34.16,-44.81 38.14,-44.83 42.12,-44.84 46.11,-44.85 50.09,-44.86 54.07,-44.87 58.05,-44.88 62.03,-44.89 66.01,-44.90 69.98,-44.91 73.96,-44.91 77.94,-44.92 81.91,-44.92 90.16,-44.88">
            <param key="origId" value="1000004_3"/>
        </lane>
    </edge>
    <edge id=":1000000_11" function="internal">
        <lane id=":1000000_11_0" index="0" disallow="pedestrian tram rail_urban rail rail_electric rail_fast ship container cable_car subway aircraft wheelchair scooter drone" speed="13.89" length="133.95" width="3.50" shape="-105.59,-45.41 -99.52,-45.27 -97.43,-45.15 -95.33,-44.99 -93.22,-44.77 -91.09,-44.51 -88.96,-44.20 -86.82,-43.84 -84.67,-43.44 -82.51,-42.99 -80.35,-42.50 -78.19,-41.97 -76.03,-41.39 -73.86,-40.77 -71.70,-40.10 -69.54,-39.40 -67.39,-38.65 -65.24,-37.86 -63.10,-37.03 -60.97,-36.15 -58.85,-35.24 -56.74,-34.28 -54.65,-33.28 -52.58,-32.24 -50.53,-31.16 -48.50,-30.03 -46.49,-28.87 -44.51,-27.66 -42.55,-26.41 -40.63,-25.12 -38.74,-23.78 -36.88,-22.40 -35.05,-20.98 -33.27,-19.51 -31.53,-18.00 -29.83,-16.44 -28.18,-14.84 -26.57,-13.19 -25.02,-11.50 -23.53,-9.76 -22.09,-7.97 -20.71,-6.13 -19.40,-4.25 -18.16,-2.31 -16.98,-0.33 -15.89,1.70 -14.88,3.78 -13.95,5.90 -13.12,8.08 -12.37,10.29 -11.74,12.55 -11.20,14.85 -10.78,17.19 -10.47,19.56 -10.28,21.96 -10.29,28.80">
            <param key="origId" value="1000005_4"/>
        </lane>
    </edge>
    <edge id=":1000000_12" function="internal">
        <lane id=":1000000_12_0" index="0" disallow="pedestrian tram rail_urban rail rail_electric rail_fast ship container cable_car subway aircraft wheelchair scooter drone" speed="13.89" length="113.90" width="3.50" shape="-24.29,28.37 -24.26,22.65 -24.39,20.94 -24.60,19.24 -24.89,17.55 -25.26,15.88 -25.71,14.21 -26.24,12.57 -26.84,10.93 -27.51,9.31 -28.25,7.71 -29.06,6.12 -29.94,4.55 -30.88,3.00 -31.88,1.46 -32.95,-0.05 -34.08,-1.54 -35.26,-3.02 -36.50,-4.47 -37.79,-5.89 -39.13,-7.29 -40.52,-8.67 -41.96,-10.02 -43.44,-11.35 -44.97,-12.64 -46.54,-13.91 -48.14,-15.15 -49.78,-16.36 -51.46,-17.54 -53.17,-18.68 -54.91,-19.80 -56.67,-20.88 -58.47,-21.92 -60.28,-22.94 -62.12,-23.91 -63.98,-24.85 -65.85,-25.75 -67.74,-26.62 -69.64,-27.44 -71.55,-28.23 -73.47,-28.97 -75.40,-29.68 -77.33,-30.34 -79.26,-30.96 -81.19,-31.54 -83.12,-32.07 -85.04,-32.56 -86.96,-33.00 -88.87,-33.40 -90.77,-33.75 -92.65,-34.05 -94.52,-34.31 -96.37,-34.51 -98.20,-34.67 -100.00,-34.78 -105.81,-34.91">
            <param key="origId" value="1000005_-1"/>
        </lane>
    </edge>
    <edge id=":1000000_13" function="internal">
        <lane id=":1000000_13_0" index="0" disallow="pedestrian tram rail_urban rail rail_electric rail_fast ship container cable_car subway aircraft wheelchair scooter drone" speed="13.89" length="115.18" width="3.50" shape="-24.29,28.37 -24.22,22.39 -24.21,20.39 -24.20,18.40 -24.19,16.41 -24.17,14.42 -24.15,12.42 -24.12,10.43 -24.09,8.44 -24.06,6.45 -24.02,4.46 -23.99,2.47 -23.95,0.49 -23.90,-1.50 -23.86,-3.49 -23.81,-5.48 -23.71,-9.45 -23.60,-13.42 -23.49,-17.39 -23.38,-21.36 -22.90,-37.21 -22.78,-41.17 -22.67,-45.13 -22.57,-49.08 -22.47,-53.04 -22.42,-55.01 -22.37,-56.99 -22.33,-58.97 -22.29,-60.94 -22.25,-62.92 -22.22,-64.89 -22.19,-66.86 -22.16,-68.84 -22.13,-70.81 -22.11,-72.78 -22.09,-74.76 -22.08,-76.73 -22.07,-78.70 -22.06,-80.67 -22.05,-86.74">
            <param key="origId" value="1000001_-2"/>
        </lane>
        <lane id=":1000000_13_1" index="1" disallow="pedestrian tram rail_urban rail rail_electric rail_fast ship container cable_car subway aircraft wheelchair scooter drone" speed="13.89" length="115.18" width="3.50" shape="-20.79,28.48 -20.72,22.39 -20.71,20.41 -20.70,18.42 -20.69,16.44 -20.67,14.45 -20.65,12.47 -20.62,10.48 -20.59,8.50 -20.56,6.51 -20.52,4.53 -20.49,2.54 -20.45,0.56 -20.40,-1.42 -20.36,-3.41 -20.31,-5.39 -20.21,-9.36 -20.11,-13.32 -19.99,-17.29 -19.88,-21.26 -19.40,-37.11 -19.29,-41.07 -19.17,-45.03 -19.07,-48.99 -18.97,-52.95 -18.92,-54.93 -18.87,-56.91 -18.83,-58.89 -18.79,-60.87 -18.75,-62.85 -18.72,-64.83 -18.69,-66.81 -18.66,-68.79 -18.63,-70.77 -18.61,-72.75 -18.59,-74.73 -18.58,-76.70 -18.57,-78.68 -18.56,-80.66 -18.55,-86.72">
            <param key="origId" value="1000001_-1"/>
        </lane>
    </edge>
    <edge id=":1000000_15" function="internal">
        <lane id=":1000000_15_0" index="0" disallow="pedestrian tram rail_urban rail rail_electric rail_fast ship container cable_car subway aircraft wheelchair scooter drone" speed="13.89" length="24.40" width="3.50" shape="-17.29,28.59 -17.16,22.14 -17.00,19.92 -16.73,17.73 -16.35,15.57 -15.87,13.45 -15.29,11.36 -14.62,9.31 -13.85,7.30 -13.00,5.34 -12.76,4.86">
            <param key="origId" value="1000006_4"/>
        </lane>
    </edge>
    <edge id=":1000000_17" function="internal">
        <lane id=":1000000_17_0" index="0" disallow="pedestrian tram rail_urban rail rail_electric rail_fast ship container cable_car subway aircraft wheelchair scooter drone" speed="13.89" length="119.67" width="3.50" shape="-12.76,4.86 -12.06,3.42 -11.04,1.54 -9.95,-0.30 -8.78,-2.09 -7.55,-3.84 -6.25,-5.55 -4.89,-7.22 -3.48,-8.85 -2.00,-10.43 -0.47,-11.98 1.11,-13.49 2.73,-14.96 4.41,-16.39 6.13,-17.79 7.89,-19.15 9.69,-20.48 11.53,-21.77 13.40,-23.03 15.31,-24.25 17.26,-25.44 19.23,-26.59 21.23,-27.72 23.26,-28.80 25.32,-29.86 27.40,-30.88 29.50,-31.87 31.62,-32.82 33.76,-33.74 35.91,-34.63 38.08,-35.48 40.26,-36.29 42.46,-37.07 44.66,-37.82 46.87,-38.53 49.09,-39.21 51.31,-39.85 53.53,-40.45 55.75,-41.01 57.97,-41.54 60.19,-42.04 62.40,-42.49 64.61,-42.91 66.80,-43.28 68.99,-43.62 71.16,-43.93 73.32,-44.19 75.46,-44.41 77.59,-44.59 79.70,-44.74 81.78,-44.84 83.85,-44.90 90.16,-44.88">
            <param key="origId" value="1000006_4"/>
        </lane>
    </edge>
    <edge id=":2#1_0" function="internal">
        <lane id=":2#1_0_0" index="0" allow="emergency authority" speed="13.89" length="3.06" width="1.79" shape="-9.81,84.43 -9.97,85.34 -10.28,85.92 -10.59,86.51 -10.75,87.42"/>
        <lane id=":2#1_0_1" index="1" disallow="pedestrian tram rail_urban rail rail_electric rail_fast ship container cable_car subway aircraft wheelchair scooter drone" speed="13.89" length="3.06" width="3.50" shape="-13.31,84.34 -13.39,87.35"/>
        <lane id=":2#1_0_2" index="2" disallow="all" speed="1.39" length="3.06" width="3.50" shape="-16.81,84.25 -16.89,87.25"/>
    </edge>
    <edge id=":2#1_3" function="internal">
        <lane id=":2#1_3_0" index="0" allow="emergency authority" speed="13.89" length="3.06" width="3.50" shape="-23.04,87.07 -23.14,86.17 -23.42,85.57 -23.70,84.97 -23.81,84.07"/>
        <lane id=":2#1_3_1" index="1" disallow="pedestrian tram rail_urban rail rail_electric rail_fast ship container cable_car subway aircraft wheelchair scooter drone" speed="13.89" length="3.06" width="3.50" shape="-20.39,87.15 -20.31,84.16"/>
    </edge>
    <edge id=":2#2_0" function="internal">
        <lane id=":2#2_0_0" index="0" disallow="pedestrian tram rail_urban rail rail_electric rail_fast ship container cable_car subway aircraft wheelchair scooter drone" speed="13.89" length="8.24" width="3.50" shape="-9.51,67.16 -9.61,75.37"/>
        <lane id=":2#2_0_1" index="1" disallow="pedestrian tram rail_urban rail rail_electric rail_fast ship container cable_car subway aircraft wheelchair scooter drone" speed="13.89" length="8.24" width="3.50" shape="-13.01,67.05 -13.11,75.31"/>
    </edge>
    <edge id=":2#2_2" function="internal">
        <lane id=":2#2_2_0" index="0" disallow="pedestrian tram rail_urban rail rail_electric rail_fast ship container cable_car subway aircraft wheelchair scooter drone" speed="13.89" length="8.56" width="3.50" shape="-23.61,75.15 -23.87,72.61 -24.48,70.91 -25.08,69.21 -25.30,66.67"/>
        <lane id=":2#2_2_1" index="1" allow="emergency authority" speed="13.89" length="8.56" width="1.79" shape="-20.11,75.21 -19.95,72.72 -19.66,71.03 -19.35,69.35 -19.15,66.86"/>
    </edge>
    <edge id=":2#3_0" function="internal">
        <lane id=":2#3_0_0" index="0" disallow="pedestrian tram rail_urban rail rail_electric rail_fast ship container cable_car subway aircraft wheelchair scooter drone" speed="13.89" length="2.98" width="3.50" shape="-8.02,46.73 -8.29,49.68"/>
        <lane id=":2#3_0_1" index="1" disallow="pedestrian tram rail_urban rail rail_electric rail_fast ship container cable_car subway aircraft wheelchair scooter drone" speed="13.89" length="2.98" width="3.50" shape="-11.50,46.40 -11.78,49.37"/>
        <lane id=":2#3_0_2" index="2" disallow="all" speed="1.39" length="2.98" width="3.50" shape="-14.99,46.07 -15.26,49.05"/>
    </edge>
    <edge id=":2#3_3" function="internal">
        <lane id=":2#3_3_0" index="0" disallow="pedestrian tram rail_urban rail rail_electric rail_fast ship container cable_car subway aircraft wheelchair scooter drone" speed="13.89" length="3.46" width="3.50" shape="-24.02,48.26 -24.20,47.27 -24.73,46.67 -25.26,46.06 -25.44,45.08"/>
        <lane id=":2#3_3_1" index="1" disallow="pedestrian tram rail_urban rail rail_electric rail_fast ship container cable_car subway aircraft wheelchair scooter drone" speed="13.89" length="3.46" width="3.50" shape="-20.53,48.57 -20.71,47.59 -21.24,46.99 -21.77,46.39 -21.95,45.41"/>
        <lane id=":2#3_3_2" index="2" allow="emergency authority" speed="13.89" length="3.46" width="3.50" shape="-17.90,48.81 -17.95,47.89 -18.18,47.28 -18.42,46.66 -18.47,45.74"/>
    </edge>
    <edge id=":2.begin_0" function="internal">
        <lane id=":2.begin_0_0" index="0" disallow="pedestrian tram rail_urban rail rail_electric rail_fast ship container cable_car subway aircraft wheelchair scooter drone" speed="4.93" length="10.22" width="3.50" shape="-13.64,100.71 -15.40,103.32 -17.16,104.19 -18.90,103.30 -20.64,100.67"/>
    </edge>
    <edge id=":3#1_0" function="internal">
        <lane id=":3#1_0_0" index="0" allow="emergency authority" speed="13.89" length="3.06" width="3.50" shape="190.04,-31.05 189.13,-30.93 188.53,-30.65 187.94,-30.36 187.03,-30.24"/>
        <lane id=":3#1_0_1" index="1" disallow="pedestrian tram rail_urban rail rail_electric rail_fast ship container cable_car subway aircraft wheelchair scooter drone" speed="13.89" length="3.06" width="3.50" shape="190.06,-33.70 187.09,-33.74"/>
    </edge>
    <edge id=":3#1_2" function="internal">
        <lane id=":3#1_2_0" index="0" allow="emergency authority" speed="13.89" length="3.00" width="1.79" shape="187.25,-44.24 188.13,-44.09 188.70,-43.79 189.28,-43.49 190.16,-43.35"/>
        <lane id=":3#1_2_1" index="1" disallow="pedestrian tram rail_urban rail rail_electric rail_fast ship container cable_car subway aircraft wheelchair scooter drone" speed="13.89" length="3.00" width="3.50" shape="187.19,-40.74 190.13,-40.70"/>
        <lane id=":3#1_2_2" index="2" disallow="all" speed="1.39" length="3.00" width="3.50" shape="187.14,-37.24 190.10,-37.20"/>
    </edge>
    <edge id=":3#2_0" function="internal">
        <lane id=":3#2_0_0" index="0" disallow="pedestrian tram rail_urban rail rail_electric rail_fast ship container cable_car subway aircraft wheelchair scooter drone" speed="13.89" length="8.44" width="3.50" shape="160.03,-30.77 157.53,-30.50 155.86,-29.88 154.20,-29.27 151.70,-29.03"/>
        <lane id=":3#2_0_1" index="1" allow="emergency authority" speed="13.89" length="8.44" width="1.80" shape="160.07,-34.27 157.61,-34.42 155.95,-34.71 154.28,-35.01 151.83,-35.18"/>
    </edge>
    <edge id=":3#2_2" function="internal">