<?xml version="1.0" encoding="UTF-8"?>

<!-- generated on 04.10.2018 08:07:19 by Eclipse SUMO netedit Version v1_0_0+0003-85a2829977
<configuration xmlns:xsi="http://www.w3.org/2001/XMLSchema-instance" xsi:noNamespaceSchemaLocation="http://sumo.dlr.de/xsd/netconvertConfiguration.xsd">

    <input>
        <sumo-net-file value="D:\sumo\tests\netedit\additionalElements\e2MultiLaneDetector\load\input_net.net.xml"/>
    </input>

    <output>
        <output-file value="D:\sumo\tests\netedit\additionalElements\e2MultiLaneDetector\load\input_net.net.xml"/>
    </output>

    <processing>
        <offset.disable-normalization value="true"/>
        <lefthand value="false"/>
    </processing>

    <junctions>
        <no-turnarounds value="true"/>
        <junctions.corner-detail value="5"/>
        <junctions.limit-turn-speed value="5.5"/>
        <rectangular-lane-cut value="false"/>
    </junctions>

    <pedestrian>
        <walkingareas value="false"/>
    </pedestrian>

</configuration>
-->

<additional xmlns:xsi="http://www.w3.org/2001/XMLSchema-instance" xsi:noNamespaceSchemaLocation="http://sumo.dlr.de/xsd/additional_file.xsd">
    <!-- missing -->
    <laneAreaDetector id="multiLaneAreaDetector_0" lanes="center0_1 center1_1" pos="15" period="900.00" file="multiLaneAreaDetector_0.xml" endPos="15"/>

    <!-- dummy -->
    <laneAreaDetector id="multiLaneAreaDetector_1" lanes="center0_1 center1_1" pos="15" period="900.00" file="multiLaneAreaDetector_1.xml" endPos="15" speedThreshold="dummySpeedThreshold"/>

    <!-- negative -->
    <laneAreaDetector id="multiLaneAreaDetector_2" lanes="center0_1 center1_1" pos="15" period="900.00" file="multiLaneAreaDetector_2.xml" endPos="15" speedThreshold="-12.5"/>

    <!-- zero -->
    <laneAreaDetector id="multiLaneAreaDetector_3" lanes="center0_1 center1_1" pos="15" period="900.00" file="multiLaneAreaDetector_3.xml" endPos="15"  speedThreshold="0"/>

    <!-- positive -->
    <laneAreaDetector id="multiLaneAreaDetector_4" lanes="center0_1 center1_1" pos="15" period="900.00" file="multiLaneAreaDetector_4.xml" endPos="15"  speedThreshold="16.2"/>

</additional>
