<?xml version="1.0" encoding="UTF-8"?>

<!-- generated on 2024-07-03 12:35:36 by Eclipse SUMO netedit Version v1_20_0+0963-89ad34cf688
<neteditConfiguration xmlns:xsi="http://www.w3.org/2001/XMLSchema-instance" xsi:noNamespaceSchemaLocation="http://sumo.dlr.de/xsd/neteditConfiguration.xsd">

    <input>
        <sumo-net-file value="D:\Netedit_dev\tests\netedit\network\junctions\load\tl_layout\net.net.xml"/>
    </input>

    <processing>
        <geometry.min-radius.fix.railways value="false"/>
        <geometry.max-grade.fix value="false"/>
        <offset.disable-normalization value="true"/>
        <lefthand value="0"/>
    </processing>

    <junctions>
        <no-turnarounds value="true"/>
        <junctions.corner-detail value="5"/>
        <junctions.limit-turn-speed value="5.50"/>
        <rectangular-lane-cut value="0"/>
    </junctions>

    <pedestrian>
        <walkingareas value="0"/>
    </pedestrian>

</neteditConfiguration>
-->

<tlLogics version="1.20" xmlns:xsi="http://www.w3.org/2001/XMLSchema-instance" xsi:noNamespaceSchemaLocation="http://sumo.dlr.de/xsd/tllogic_file.xsd">
    <tlLogic id="J0" type="static" programID="0" offset="0">
        <phase duration="18" state="GGrrrrrr"/>
        <phase duration="3"  state="yyrrrrrr"/>
        <phase duration="20" state="rrGGrrrr"/>
        <phase duration="3"  state="rryyrrrr"/>
        <phase duration="20" state="rrrrGGrr"/>
        <phase duration="3"  state="rrrryyrr"/>
        <phase duration="20" state="rrrrrrGG"/>
        <phase duration="3"  state="rrrrrryy"/>
    </tlLogic>

    <connection from="-E0" to="E3" fromLane="0" toLane="0" tl="J0" linkIndex="0"/>
    <connection from="-E0" to="E1" fromLane="0" toLane="0" tl="J0" linkIndex="1"/>
    <connection from="-E1" to="E2" fromLane="0" toLane="0" tl="J0" linkIndex="4"/>
    <connection from="-E1" to="E0" fromLane="0" toLane="0" tl="J0" linkIndex="5"/>
    <connection from="-E2" to="E0" fromLane="0" toLane="0" tl="J0" linkIndex="2"/>
    <connection from="-E2" to="E3" fromLane="0" toLane="0" tl="J0" linkIndex="3"/>
    <connection from="-E3" to="E1" fromLane="0" toLane="0" tl="J0" linkIndex="6"/>
    <connection from="-E3" to="E2" fromLane="0" toLane="0" tl="J0" linkIndex="7"/>
</tlLogics>
