<?xml version="1.0" encoding="UTF-8"?>

<!-- generated on 2024-09-22 16:35:37 by Eclipse SUMO netedit Version v1_20_0+2108-65a749ef018
This data file and the accompanying materials
are made available under the terms of the Eclipse Public License v2.0
which accompanies this distribution, and is available at
http://www.eclipse.org/legal/epl-v20.html
This file may also be made available under the following Secondary
Licenses when the conditions for such availability set forth in the Eclipse
Public License 2.0 are satisfied: GNU General Public License, version 2
or later which is available at
https://www.gnu.org/licenses/old-licenses/gpl-2.0-standalone.html
SPDX-License-Identifier: EPL-2.0 OR GPL-2.0-or-later
-->

<additional xmlns:xsi="http://www.w3.org/2001/XMLSchema-instance" xsi:noNamespaceSchemaLocation="http://sumo.dlr.de/xsd/additional_file.xsd">
    <!-- Detectors -->
    <laneAreaDetector id="E2_A" lane="EdgeCenter1_1" pos="24.43" length="10.00" period="120.00" name="A" file="fileA.txt" vTypes="Type1 Type2 Type3" nextEdges="EdgeCenter0" detectPersons="walkBackward" tl="gneJ0" timeThreshold="1.39">
        <param key="KeyA1" value="valueA1"/>
        <param key="KeyA2" value="valueA3"/>
        <param key="KeyA3" value="valueA2"/>
    </laneAreaDetector>
    <laneAreaDetector id="E2_B" lane="EdgeCenter0_0" pos="15.00" length="5.00" period="240.00" name="B" file="fileB.txt" vTypes="Type4 Type5 Type6" nextEdges="edge3" detectPersons="car" tl="gneJ0" timeThreshold="3.49" speedThreshold="3.49" jamThreshold="3.49">
        <param key="KeyB1" value="valueB1"/>
        <param key="KeyB2" value="valueB3"/>
        <param key="KeyB3" value="valueB2"/>
    </laneAreaDetector>
</additional>
