<?xml version="1.0" encoding="UTF-8"?>

<!-- generated on 2021-08-27 13:58:51 by Eclipse SUMO netedit Version v1_10_0+0351-65434c07db
-->

<routes xmlns:xsi="http://www.w3.org/2001/XMLSchema-instance" xsi:noNamespaceSchemaLocation="http://sumo.dlr.de/xsd/routes_file.xsd">
    <trip id="trip_3" depart="20.00" from="gneE2" to="gneE2"/>
    <trip id="trip_4" depart="20.00" from="gneE2" to="gneE5"/>
</routes>
