<?xml version="1.0"?>

<!-- generated on 01/06/09 10:56:48 by SUMO netconvert Version dev-SVN-r6533
<configuration>

   <input>
      <osm-files>osm.xml</osm-files>
   </input>

   <projection>
      <use-projection>true</use-projection>
   </projection>

   <processing>
      <no-internal-links>true</no-internal-links>
   </processing>

   <report>
      <verbose>true</verbose>
   </report>

</configuration>
-->

<net>

   <net-offset>-1214127.63,-5860084.50</net-offset>
   <conv-boundary>0.00,0.00,1778.75,1086.50</conv-boundary>
   <orig-boundary>13.519602,52.425529,13.545248,52.434467</orig-boundary>
   <orig-proj>+proj=utm +ellps=bessel +units=m</orig-proj>


   <edge id="-22917251" from="32266936" to="32266938" priority="6" type="highway.tertiary" function="normal">
      <lanes>
         <lane id="-22917251_0" depart="1" vclasses="" maxspeed="22.22" length="53.59">520.64,0.13 516.27,53.55</lane>
      </lanes>
   </edge>

   <edge id="-24214693" from="57343510" to="32266935" priority="9" type="highway.primary" function="normal">
      <lanes>
         <lane id="-24214693_0" depart="1" vclasses="" maxspeed="27.78" length="465.65">43.13,47.55 62.66,48.05 233.08,54.55 508.38,67.32</lane>
         <lane id="-24214693_1" depart="0" vclasses="" maxspeed="27.78" length="465.65">43.04,50.85 62.55,51.35 232.95,57.85 508.23,70.62</lane>
      </lanes>
   </edge>

   <edge id="-24214694" from="32266938" to="32266935" priority="6" type="highway.tertiary" function="normal">
      <lanes>
         <lane id="-24214694_0" depart="1" vclasses="" maxspeed="22.22" length="1.59">515.52,63.00 515.39,64.59</lane>
      </lanes>
   </edge>

   <edge id="-25944590#0" from="283018841" to="283018817" priority="1" type="highway.footway" function="normal">
      <lanes>
         <lane id="-25944590#0_0" depart="1" vclasses="pedestrian" maxspeed="8.33" length="83.15">492.50,489.26 494.90,490.48 515.65,497.93 571.49,515.05</lane>
      </lanes>
   </edge>

   <edge id="-25944590#1" from="283018842" to="283018841" priority="1" type="highway.footway" function="normal">
      <lanes>
         <lane id="-25944590#1_0" depart="1" vclasses="pedestrian" maxspeed="8.33" length="21.58">460.82,474.10 480.34,483.30</lane>
      </lanes>
   </edge>

   <edge id="-25944590#2" from="283018844" to="283018842" priority="1" type="highway.footway" function="normal">
      <lanes>
         <lane id="-25944590#2_0" depart="1" vclasses="pedestrian" maxspeed="8.33" length="95.65">381.71,423.58 457.09,482.46</lane>
      </lanes>
   </edge>

   <edge id="-25944590#3" from="283018845" to="283018844" priority="1" type="highway.footway" function="normal">
      <lanes>
         <lane id="-25944590#3_0" depart="1" vclasses="pedestrian" maxspeed="8.33" length="23.65">355.89,401.11 373.58,416.81</lane>
      </lanes>
   </edge>

   <edge id="-25944601#0" from="283018844" to="38919854" priority="1" type="highway.footway" function="normal">
      <lanes>
         <lane id="-25944601#0_0" depart="1" vclasses="pedestrian" maxspeed="8.33" length="12.87">373.52,426.16 363.80,434.59</lane>
      </lanes>
   </edge>

   <edge id="-25944601#1" from="283018932" to="283018844" priority="1" type="highway.footway" function="normal">
      <lanes>
         <lane id="-25944601#1_0" depart="1" vclasses="pedestrian" maxspeed="8.33" length="5.52">385.82,415.62 381.62,419.20</lane>
      </lanes>
   </edge>

   <edge id="-25944603#0" from="283018841" to="283018933" priority="1" type="highway.footway" function="normal">
      <lanes>
         <lane id="-25944603#0_0" depart="1" vclasses="pedestrian" maxspeed="8.33" length="17.65">490.48,482.23 497.30,477.81 502.38,469.75</lane>
      </lanes>
   </edge>

   <edge id="-25944603#1" from="283018937" to="283018841" priority="1" type="highway.footway" function="normal">
      <lanes>
         <lane id="-25944603#1_0" depart="1" vclasses="pedestrian" maxspeed="8.33" length="10.45">471.88,497.62 479.58,490.57</lane>
      </lanes>
   </edge>

   <edge id="-25944603#2" from="38919841" to="283018937" priority="1" type="highway.footway" function="normal">
      <lanes>
         <lane id="-25944603#2_0" depart="1" vclasses="pedestrian" maxspeed="8.33" length="3.60">464.02,507.77 465.83,504.65</lane>
      </lanes>
   </edge>

   <edge id="-25944605" from="283018842" to="283018937" priority="1" type="highway.footway" function="normal">
      <lanes>
         <lane id="-25944605_0" depart="1" vclasses="pedestrian" maxspeed="8.33" length="12.43">460.98,486.46 467.54,497.03</lane>
      </lanes>
   </edge>

   <edge id="-25951490" from="32266938" to="175648134" priority="1" type="highway.cycleway" function="normal">
      <lanes>
         <lane id="-25951490_0" depart="1" vclasses="bicycle" maxspeed="5.56" length="464.03">509.30,59.48 45.57,43.15</lane>
      </lanes>
   </edge>

   <edge id="-26004787#0" from="283721344" to="283719736" priority="1" type="highway.footway" function="normal">
      <lanes>
         <lane id="-26004787#0_0" depart="1" vclasses="pedestrian" maxspeed="8.33" length="17.45">985.45,567.10 1002.70,564.41</lane>
      </lanes>
   </edge>

   <edge id="-26004787#1" from="283722837" to="283721344" priority="1" type="highway.footway" function="normal">
      <lanes>
         <lane id="-26004787#1_0" depart="1" vclasses="pedestrian" maxspeed="8.33" length="26.98">948.36,571.07 975.20,568.39</lane>
      </lanes>
   </edge>

   <edge id="-26004787#2" from="283719904" to="283722837" priority="1" type="highway.footway" function="normal">
      <lanes>
         <lane id="-26004787#2_0" depart="1" vclasses="pedestrian" maxspeed="8.33" length="40.74">891.62,577.56 932.07,572.76</lane>
      </lanes>
   </edge>

   <edge id="-26004861#0" from="283721344" to="287944369" priority="1" type="highway.footway" function="normal">
      <lanes>
         <lane id="-26004861#0_0" depart="1" vclasses="pedestrian" maxspeed="8.33" length="8.79">983.51,574.00 985.54,582.55</lane>
      </lanes>
   </edge>

   <edge id="-26004861#1" from="287944368" to="283721344" priority="1" type="highway.footway" function="normal">
      <lanes>
         <lane id="-26004861#1_0" depart="1" vclasses="pedestrian" maxspeed="8.33" length="13.87">976.95,550.53 980.82,563.85</lane>
      </lanes>
   </edge>

   <edge id="-26004861#2" from="283721348" to="287944368" priority="1" type="highway.footway" function="normal">
      <lanes>
         <lane id="-26004861#2_0" depart="1" vclasses="pedestrian" maxspeed="8.33" length="13.36">970.41,525.35 973.65,538.32</lane>
      </lanes>
   </edge>

   <edge id="-26004868#0" from="287944369" to="283719736" priority="1" type="highway.footway" function="normal">
      <lanes>
         <lane id="-26004868#0_0" depart="1" vclasses="pedestrian" maxspeed="8.33" length="19.79">989.62,583.90 1004.81,571.21</lane>
      </lanes>
   </edge>

   <edge id="-26004868#1" from="283721473" to="287944369" priority="1" type="highway.footway" function="normal">
      <lanes>
         <lane id="-26004868#1_0" depart="1" vclasses="pedestrian" maxspeed="8.33" length="22.39">964.38,604.62 981.72,590.46</lane>
      </lanes>
   </edge>

   <edge id="-26004966#0" from="283721473" to="283722835" priority="1" type="highway.footway" function="normal">
      <lanes>
         <lane id="-26004966#0_0" depart="1" vclasses="pedestrian" maxspeed="8.33" length="13.80">965.84,611.66 974.42,622.47</lane>
      </lanes>
   </edge>

   <edge id="-26004966#1" from="283722837" to="283721473" priority="1" type="highway.footway" function="normal">
      <lanes>
         <lane id="-26004966#1_0" depart="1" vclasses="pedestrian" maxspeed="8.33" length="31.46">941.26,578.82 960.03,604.08</lane>
      </lanes>
   </edge>

   <edge id="-26004966#2" from="287944368" to="283722837" priority="1" type="highway.footway" function="normal">
      <lanes>
         <lane id="-26004966#2_0" depart="1" vclasses="pedestrian" maxspeed="8.33" length="28.60">969.67,550.10 946.93,567.45</lane>
      </lanes>
   </edge>

   <edge id="-26004966#3" from="283720461" to="287944368" priority="1" type="highway.footway" function="normal">
      <lanes>
         <lane id="-26004966#3_0" depart="1" vclasses="pedestrian" maxspeed="8.33" length="8.16">986.21,537.34 979.76,542.34</lane>
      </lanes>
   </edge>

   <edge id="-26816413#0" from="294168710" to="56231597" priority="2" type="highway.service" function="normal">
      <lanes>
         <lane id="-26816413#0_0" depart="1" vclasses="delivery" maxspeed="5.56" length="59.38">584.73,306.67 621.36,353.40</lane>
      </lanes>
   </edge>

   <edge id="-26816413#1+26816541" from="294168098" to="294168710" priority="2" type="" function="normal">
      <lanes>
         <lane id="-26816413#1+26816541_0" depart="1" vclasses="" maxspeed="5.56" length="27.85">568.65,280.16 585.53,302.31</lane>
         <lane id="-26816413#1+26816541_1" depart="0" vclasses="" maxspeed="5.56" length="27.85">566.03,282.16 582.91,304.31</lane>
      </lanes>
   </edge>

   <edge id="-26816553" from="294168972" to="294168098" priority="2" type="highway.service" function="normal">
      <lanes>
         <lane id="-26816553_0" depart="1" vclasses="delivery" maxspeed="5.56" length="211.41">726.79,220.25 720.62,224.81 691.30,247.75 649.63,201.34 575.24,268.72 572.48,271.28</lane>
      </lanes>
   </edge>

   <edge id="-26816590#0" from="294169338" to="294168098" priority="2" type="highway.service" function="normal">
      <lanes>
         <lane id="-26816590#0_0" depart="1" vclasses="delivery" maxspeed="5.56" length="9.13">563.23,273.20 566.70,281.64</lane>
      </lanes>
   </edge>

   <edge id="-26816590#1" from="294169339" to="294169338" priority="2" type="highway.service" function="normal">
      <lanes>
         <lane id="-26816590#1_0" depart="1" vclasses="delivery" maxspeed="5.56" length="5.09">551.42,263.49 555.69,266.26</lane>
      </lanes>
   </edge>

   <edge id="-26816590#2" from="294169342" to="294169339" priority="2" type="highway.service" function="normal">
      <lanes>
         <lane id="-26816590#2_0" depart="1" vclasses="delivery" maxspeed="5.56" length="40.22">502.91,258.66 543.05,261.23</lane>
      </lanes>
   </edge>

   <edge id="-26816627" from="294169618" to="294169338" priority="2" type="highway.service" function="normal">
      <lanes>
         <lane id="-26816627_0" depart="1" vclasses="delivery" maxspeed="5.56" length="153.17">571.52,111.59 562.80,264.51</lane>
      </lanes>
   </edge>

   <edge id="-26843019" from="294829798" to="294829385" priority="2" type="highway.service" function="normal">
      <lanes>
         <lane id="-26843019_0" depart="1" vclasses="delivery" maxspeed="5.56" length="90.18">903.28,433.86 834.48,492.16</lane>
      </lanes>
   </edge>

   <edge id="-26843133#0" from="294831560" to="294169339" priority="2" type="highway.service" function="normal">
      <lanes>
         <lane id="-26843133#0_0" depart="1" vclasses="delivery" maxspeed="5.56" length="5.54">550.14,253.14 549.66,258.66</lane>
      </lanes>
   </edge>

   <edge id="-5198584" from="36268382" to="36268416" priority="4" type="highway.residential" function="normal">
      <lanes>
         <lane id="-5198584_0" depart="1" vclasses="" maxspeed="13.89" length="534.32">1393.55,650.98 1246.94,452.00 1068.39,227.09</lane>
      </lanes>
   </edge>

   <edge id="-5198585#0" from="294168972" to="36268369" priority="4" type="highway.residential" function="normal">
      <lanes>
         <lane id="-5198585#0_0" depart="1" vclasses="" maxspeed="13.89" length="138.96">725.37,213.24 682.62,160.91 671.32,139.36 674.34,92.40</lane>
      </lanes>
   </edge>

   <edge id="-5198585#1" from="36268375" to="294168972" priority="4" type="highway.residential" function="normal">
      <lanes>
         <lane id="-5198585#1_0" depart="1" vclasses="" maxspeed="13.89" length="50.76">763.64,259.79 731.39,220.59</lane>
      </lanes>
   </edge>

   <edge id="-5198585#2" from="36268376" to="36268375" priority="4" type="highway.residential" function="normal">
      <lanes>
         <lane id="-5198585#2_0" depart="1" vclasses="" maxspeed="13.89" length="164.96">874.68,394.36 769.68,267.13</lane>
      </lanes>
   </edge>

   <edge id="-5198585#3" from="294829798" to="36268376" priority="4" type="highway.residential" function="normal">
      <lanes>
         <lane id="-5198585#3_0" depart="1" vclasses="" maxspeed="13.89" length="32.63">901.60,426.92 880.81,401.78</lane>
      </lanes>
   </edge>

   <edge id="-5198585#4" from="36268431" to="294829798" priority="4" type="highway.residential" function="normal">
      <lanes>
         <lane id="-5198585#4_0" depart="1" vclasses="" maxspeed="13.89" length="40.91">933.66,465.83 907.65,434.25</lane>
      </lanes>
   </edge>

   <edge id="-5198585#5" from="36268378" to="36268431" priority="4" type="highway.residential" function="normal">
      <lanes>
         <lane id="-5198585#5_0" depart="1" vclasses="" maxspeed="13.89" length="49.03">969.06,512.20 939.44,473.13</lane>
      </lanes>
   </edge>

   <edge id="-5198585#6" from="283720461" to="36268378" priority="4" type="highway.residential" function="normal">
      <lanes>
         <lane id="-5198585#6_0" depart="1" vclasses="" maxspeed="13.89" length="14.53">984.60,530.37 974.99,519.47</lane>
      </lanes>
   </edge>

   <edge id="-5198585#7" from="283719736" to="283720461" priority="4" type="highway.residential" function="normal">
      <lanes>
         <lane id="-5198585#7_0" depart="1" vclasses="" maxspeed="13.89" length="29.08">1009.93,559.51 990.87,537.54</lane>
      </lanes>
   </edge>

   <edge id="-5198585#8" from="36268381" to="283719736" priority="4" type="highway.residential" function="normal">
      <lanes>
         <lane id="-5198585#8_0" depart="1" vclasses="" maxspeed="13.89" length="286.72">1192.42,795.97 1105.43,676.99 1019.79,567.09</lane>
      </lanes>
   </edge>

   <edge id="-5198586#0" from="36268406" to="36268415" priority="4" type="highway.residential" function="normal">
      <lanes>
         <lane id="-5198586#0_0" depart="1" vclasses="" maxspeed="13.89" length="67.85">801.21,466.73 748.19,509.07</lane>
      </lanes>
   </edge>

   <edge id="-5198586#1" from="36268376" to="36268406" priority="4" type="highway.residential" function="normal">
      <lanes>
         <lane id="-5198586#1_0" depart="1" vclasses="" maxspeed="13.89" length="89.91">876.44,401.42 808.67,460.51</lane>
      </lanes>
   </edge>

   <edge id="-5198586#2" from="36268417" to="36268376" priority="4" type="highway.residential" function="normal">
      <lanes>
         <lane id="-5198586#2_0" depart="1" vclasses="" maxspeed="13.89" length="136.63">988.00,306.88 883.72,395.16</lane>
      </lanes>
   </edge>

   <edge id="-5198586#3" from="36268416" to="36268417" priority="4" type="highway.residential" function="normal">
      <lanes>
         <lane id="-5198586#3_0" depart="1" vclasses="" maxspeed="13.89" length="99.99">1071.37,235.91 995.24,300.74</lane>
      </lanes>
   </edge>

   <edge id="-5198586#4" from="261636677" to="36268416" priority="4" type="highway.residential" function="normal">
      <lanes>
         <lane id="-5198586#4_0" depart="1" vclasses="" maxspeed="13.89" length="91.19">1149.97,174.00 1071.32,220.15</lane>
      </lanes>
   </edge>

   <edge id="-5198587" from="36268392" to="36268431" priority="4" type="highway.residential" function="normal">
      <lanes>
         <lane id="-5198587_0" depart="1" vclasses="" maxspeed="13.89" length="135.38">1045.42,378.40 942.73,466.61</lane>
      </lanes>
   </edge>

   <edge id="-5198588#0" from="36268392" to="36268417" priority="4" type="highway.residential" function="normal">
      <lanes>
         <lane id="-5198588#0_0" depart="1" vclasses="" maxspeed="13.89" length="82.19">1043.81,371.41 992.37,307.30</lane>
      </lanes>
   </edge>

   <edge id="-5198588#1" from="36268391" to="36268392" priority="4" type="highway.residential" function="normal">
      <lanes>
         <lane id="-5198588#1_0" depart="1" vclasses="" maxspeed="13.89" length="182.76">1165.72,520.05 1049.78,378.78</lane>
      </lanes>
   </edge>

   <edge id="-5198596#0" from="294829881" to="36268403" priority="4" type="highway.residential" function="normal">
      <lanes>
         <lane id="-5198596#0_0" depart="1" vclasses="" maxspeed="13.89" length="54.49">859.26,527.44 894.20,569.27</lane>
      </lanes>
   </edge>

   <edge id="-5198596#1" from="294829385" to="294829881" priority="4" type="highway.residential" function="normal">
      <lanes>
         <lane id="-5198596#1_0" depart="1" vclasses="" maxspeed="13.89" length="39.88">834.00,496.59 859.27,527.44</lane>
      </lanes>
   </edge>

   <edge id="-5198596#2" from="36268406" to="294829385" priority="4" type="highway.residential" function="normal">
      <lanes>
         <lane id="-5198596#2_0" depart="1" vclasses="" maxspeed="13.89" length="31.26">808.14,465.09 827.98,489.24</lane>
      </lanes>
   </edge>

   <edge id="-5198596#3" from="36268408" to="36268406" priority="4" type="highway.residential" function="normal">
      <lanes>
         <lane id="-5198596#3_0" depart="1" vclasses="" maxspeed="13.89" length="131.23">721.18,354.32 802.14,457.61</lane>
      </lanes>
   </edge>

   <edge id="-5198596#4" from="36268411" to="36268408" priority="4" type="highway.residential" function="normal">
      <lanes>
         <lane id="-5198596#4_0" depart="1" vclasses="" maxspeed="13.89" length="29.80">694.95,324.63 714.87,346.80</lane>
      </lanes>
   </edge>

   <edge id="-5198597#0" from="36268411" to="36268375" priority="4" type="highway.residential" function="normal">
      <lanes>
         <lane id="-5198597#0_0" depart="1" vclasses="" maxspeed="13.89" length="87.93">693.35,317.64 763.14,264.15</lane>
      </lanes>
   </edge>

   <edge id="-5198597#1" from="56231597" to="36268411" priority="4" type="highway.residential" function="normal">
      <lanes>
         <lane id="-5198597#1_0" depart="1" vclasses="" maxspeed="13.89" length="65.99">625.69,354.06 680.06,316.66</lane>
      </lanes>
   </edge>

   <edge id="-5198597#2" from="56231598" to="56231597" priority="4" type="highway.residential" function="normal">
      <lanes>
         <lane id="-5198597#2_0" depart="1" vclasses="" maxspeed="13.89" length="30.34">600.71,384.45 619.36,360.52</lane>
      </lanes>
   </edge>

   <edge id="-5784968#0" from="283721348" to="36268378" priority="4" type="highway.residential" function="normal">
      <lanes>
         <lane id="-5784968#0_0" depart="1" vclasses="" maxspeed="13.89" length="7.50">966.26,518.18 972.26,513.68</lane>
      </lanes>
   </edge>

   <edge id="-5784968#1" from="36268403" to="283721348" priority="4" type="highway.residential" function="normal">
      <lanes>
         <lane id="-5784968#1_0" depart="1" vclasses="" maxspeed="13.89" length="78.64">898.66,569.89 961.13,522.11</lane>
      </lanes>
   </edge>

   <edge id="-5784968#2" from="283719904" to="36268403" priority="4" type="highway.residential" function="normal">
      <lanes>
         <lane id="-5784968#2_0" depart="1" vclasses="" maxspeed="13.89" length="2.54">889.28,577.35 891.24,575.75</lane>
      </lanes>
   </edge>

   <edge id="-5784968#3" from="38920778" to="283719904" priority="4" type="highway.residential" function="normal">
      <lanes>
         <lane id="-5784968#3_0" depart="1" vclasses="" maxspeed="13.89" length="34.39">860.52,604.44 885.49,580.79</lane>
      </lanes>
   </edge>

   <edge id="-5784968#4" from="306982585" to="38920778" priority="4" type="highway.residential" function="normal">
      <lanes>
         <lane id="-5784968#4_0" depart="1" vclasses="" maxspeed="13.89" length="5.58">847.58,615.62 851.94,612.14</lane>
      </lanes>
   </edge>

   <edge id="-5784968#5" from="36268398" to="306982585" priority="4" type="highway.residential" function="normal">
      <lanes>
         <lane id="-5784968#5_0" depart="1" vclasses="" maxspeed="13.89" length="4.03">844.12,617.94 847.47,615.71</lane>
      </lanes>
   </edge>

   <edge id="-6137233#0" from="38919880" to="38919927" priority="4" type="highway.residential" function="normal">
      <lanes>
         <lane id="-6137233#0_0" depart="1" vclasses="" maxspeed="13.89" length="38.76">314.41,379.58 278.28,365.54</lane>
      </lanes>
   </edge>

   <edge id="-6137233#1" from="283018845" to="38919880" priority="4" type="highway.residential" function="normal">
      <lanes>
         <lane id="-6137233#1_0" depart="1" vclasses="" maxspeed="13.89" length="31.29">352.24,395.62 341.33,390.95 323.47,383.31</lane>
      </lanes>
   </edge>

   <edge id="-6137233#2" from="283018932" to="283018845" priority="4" type="highway.residential" function="normal">
      <lanes>
         <lane id="-6137233#2_0" depart="1" vclasses="" maxspeed="13.89" length="27.42">383.03,408.86 357.84,398.04</lane>
      </lanes>
   </edge>

   <edge id="-6137233#3" from="283018933" to="283018932" priority="4" type="highway.residential" function="normal">
      <lanes>
         <lane id="-6137233#3_0" depart="1" vclasses="" maxspeed="13.89" length="117.23">501.32,465.50 399.70,407.05</lane>
      </lanes>
   </edge>

   <edge id="-6137233#4" from="38919712" to="283018933" priority="4" type="highway.residential" function="normal">
      <lanes>
         <lane id="-6137233#4_0" depart="1" vclasses="" maxspeed="13.89" length="78.90">577.66,510.09 509.55,470.27</lane>
      </lanes>
   </edge>

   <edge id="-6137239#0" from="38919854" to="38919880" priority="4" type="highway.residential" function="normal">
      <lanes>
         <lane id="-6137239#0_0" depart="1" vclasses="" maxspeed="13.89" length="65.15">354.14,435.11 323.17,405.51 315.68,391.32 316.42,385.10</lane>
      </lanes>
   </edge>

   <edge id="-6137239#1" from="38919841" to="38919854" priority="4" type="highway.residential" function="normal">
      <lanes>
         <lane id="-6137239#1_0" depart="1" vclasses="" maxspeed="13.89" length="118.43">457.78,511.33 362.04,441.62</lane>
      </lanes>
   </edge>

   <edge id="-6137239#2" from="38919808" to="38919841" priority="4" type="highway.residential" function="normal">
      <lanes>
         <lane id="-6137239#2_0" depart="1" vclasses="" maxspeed="13.89" length="93.00">558.60,532.48 483.89,522.62 467.09,517.24</lane>
      </lanes>
   </edge>

   <edge id="-6137239#3" from="38919652" to="38919808" priority="4" type="highway.residential" function="normal">
      <lanes>
         <lane id="-6137239#3_0" depart="1" vclasses="" maxspeed="13.89" length="2.16">571.64,533.79 569.49,533.61</lane>
      </lanes>
   </edge>

   <edge id="-6137239#4" from="38919605" to="38919652" priority="4" type="highway.residential" function="normal">
      <lanes>
         <lane id="-6137239#4_0" depart="1" vclasses="" maxspeed="13.89" length="35.69">737.42,574.47 727.70,561.19 718.98,554.97 710.97,552.06</lane>
      </lanes>
   </edge>

   <edge id="-7216737#0" from="36268421" to="94487954" priority="9" type="highway.primary" function="normal">
      <lanes>
         <lane id="-7216737#0_0" depart="1" vclasses="" maxspeed="27.78" length="601.41">1188.54,108.72 1553.81,129.56 1651.65,136.07 1686.16,141.13 1726.27,150.27 1742.11,156.91 1765.67,166.13 1781.70,178.02</lane>
         <lane id="-7216737#0_1" depart="0" vclasses="" maxspeed="27.78" length="601.41">1188.35,112.01 1553.60,132.85 1651.30,139.36 1685.55,144.38 1725.26,153.42 1740.87,159.97 1764.06,169.04 1779.73,180.67</lane>
      </lanes>
   </edge>

   <edge id="-7216737#1" from="261636678" to="36268421" priority="9" type="highway.primary" function="normal">
      <lanes>
         <lane id="-7216737#1_0" depart="1" vclasses="" maxspeed="27.78" length="23.65">1159.08,106.32 1182.65,108.29</lane>
         <lane id="-7216737#1_1" depart="0" vclasses="" maxspeed="27.78" length="23.65">1158.81,109.61 1182.38,111.58</lane>
      </lanes>
   </edge>

   <edge id="-7216737#2" from="36268369" to="261636678" priority="9" type="highway.primary" function="normal">
      <lanes>
         <lane id="-7216737#2_0" depart="1" vclasses="" maxspeed="27.78" length="472.86">680.88,79.57 810.52,80.05 972.70,89.06 1153.10,102.66</lane>
         <lane id="-7216737#2_1" depart="0" vclasses="" maxspeed="27.78" length="472.86">680.87,82.87 810.42,83.35 972.48,92.35 1152.85,105.95</lane>
      </lanes>
   </edge>

   <edge id="-7216737#3" from="32266935" to="36268369" priority="9" type="highway.primary" function="normal">
      <lanes>
         <lane id="-7216737#3_0" depart="1" vclasses="" maxspeed="27.78" length="154.35">518.25,67.91 672.19,79.22</lane>
         <lane id="-7216737#3_1" depart="0" vclasses="" maxspeed="27.78" length="154.35">518.01,71.20 671.94,82.51</lane>
      </lanes>
   </edge>

   <edge id="-7727483#0" from="294169342" to="38920501" priority="6" type="highway.tertiary" function="normal">
      <lanes>
         <lane id="-7727483#0_0" depart="1" vclasses="" maxspeed="22.22" length="4.02">499.64,260.15 499.27,264.15</lane>
      </lanes>
   </edge>

   <edge id="-7727483#1" from="261647692" to="294169342" priority="6" type="highway.tertiary" function="normal">
      <lanes>
         <lane id="-7727483#1_0" depart="1" vclasses="" maxspeed="22.22" length="46.11">503.87,209.39 500.04,255.34</lane>
      </lanes>
   </edge>

   <edge id="-7727483#2" from="261647702" to="261647692" priority="6" type="highway.tertiary" function="normal">
      <lanes>
         <lane id="-7727483#2_0" depart="1" vclasses="" maxspeed="22.22" length="90.54">511.02,119.13 509.39,139.15 503.73,209.38</lane>
      </lanes>
   </edge>

   <edge id="-7727483#3" from="32266935" to="261647702" priority="6" type="highway.tertiary" function="normal">
      <lanes>
         <lane id="-7727483#3_0" depart="1" vclasses="" maxspeed="22.22" length="38.49">514.11,80.77 511.02,119.13</lane>
      </lanes>
   </edge>

   <edge id="-7730463" from="36268408" to="56242425" priority="1" type="highway.footway" function="normal">
      <lanes>
         <lane id="-7730463_0" depart="1" vclasses="pedestrian" maxspeed="8.33" length="87.04">714.22,355.92 647.90,412.29</lane>
      </lanes>
   </edge>

   <edge id="-7730464" from="56231598" to="56242441" priority="6" type="highway.tertiary" function="normal">
      <lanes>
         <lane id="-7730464_0" depart="1" vclasses="" maxspeed="22.22" length="3.29">600.15,392.52 599.43,395.73</lane>
      </lanes>
   </edge>

   <edge id="20430080" from="57343359" to="59993001" priority="6" type="highway.tertiary" function="normal">
      <lanes>
         <lane id="20430080_0" depart="1" vclasses="" maxspeed="22.22" length="493.93">2.64,215.34 5.50,213.00 15.00,205.00 35.50,207.50 189.50,245.00 302.00,271.00 382.62,294.50 474.57,331.81</lane>
      </lanes>
   </edge>

   <edge id="22917251" from="32266938" to="32266936" priority="6" type="highway.tertiary" function="normal">
      <lanes>
         <lane id="22917251_0" depart="1" vclasses="" maxspeed="22.22" length="53.59">512.98,53.28 517.36,-0.13</lane>
      </lanes>
   </edge>

   <edge id="24152812#0" from="36268421" to="261636677" priority="4" type="highway.residential" function="normal">
      <lanes>
         <lane id="24152812#0_0" depart="1" vclasses="" maxspeed="13.89" length="77.75">1184.62,121.55 1178.75,175.00 1154.91,172.50</lane>
      </lanes>
   </edge>

   <edge id="24152812#1" from="261636677" to="261636678" priority="4" type="highway.residential" function="normal">
      <lanes>
         <lane id="24152812#1_0" depart="1" vclasses="" maxspeed="13.89" length="48.86">1150.52,167.67 1154.90,119.01</lane>
      </lanes>
   </edge>

   <edge id="24214693" from="32266935" to="57343510" priority="9" type="highway.primary" function="normal">
      <lanes>
         <lane id="24214693_0" depart="1" vclasses="" maxspeed="27.78" length="465.51">507.93,77.21 232.67,64.45 62.34,57.95 42.87,57.45</lane>
         <lane id="24214693_1" depart="0" vclasses="" maxspeed="27.78" length="465.51">508.08,73.92 232.81,61.15 62.45,54.65 42.96,54.15</lane>
      </lanes>
   </edge>

   <edge id="24214694" from="32266935" to="32266938" priority="6" type="highway.tertiary" function="normal">
      <lanes>
         <lane id="24214694_0" depart="1" vclasses="" maxspeed="22.22" length="1.59">512.10,64.33 512.23,62.75</lane>
      </lanes>
   </edge>

   <edge id="25944590#0" from="283018817" to="283018841" priority="1" type="highway.footway" function="normal">
      <lanes>
         <lane id="25944590#0_0" depart="1" vclasses="pedestrian" maxspeed="8.33" length="83.71">570.52,518.20 514.60,501.07 493.60,493.52 491.01,492.21</lane>
      </lanes>
   </edge>

   <edge id="25944590#1" from="283018841" to="283018842" priority="1" type="highway.footway" function="normal">
      <lanes>
         <lane id="25944590#1_0" depart="1" vclasses="pedestrian" maxspeed="8.33" length="21.35">478.93,486.29 459.63,477.19</lane>
      </lanes>
   </edge>

   <edge id="25944590#2" from="283018842" to="283018844" priority="1" type="highway.footway" function="normal">
      <lanes>
         <lane id="25944590#2_0" depart="1" vclasses="pedestrian" maxspeed="8.33" length="95.65">455.06,485.06 426.67,462.88 379.68,426.18</lane>
      </lanes>
   </edge>

   <edge id="25944590#3" from="283018844" to="283018845" priority="1" type="highway.footway" function="normal">
      <lanes>
         <lane id="25944590#3_0" depart="1" vclasses="pedestrian" maxspeed="8.33" length="23.65">371.39,419.28 353.70,403.58</lane>
      </lanes>
   </edge>

   <edge id="25944601#0" from="38919854" to="283018844" priority="1" type="highway.footway" function="normal">
      <lanes>
         <lane id="25944601#0_0" depart="1" vclasses="pedestrian" maxspeed="8.33" length="12.87">361.64,432.09 371.36,423.66</lane>
      </lanes>
   </edge>

   <edge id="25944601#1" from="283018844" to="283018932" priority="1" type="highway.footway" function="normal">
      <lanes>
         <lane id="25944601#1_0" depart="1" vclasses="pedestrian" maxspeed="8.33" length="5.52">379.48,416.69 383.68,413.11</lane>