<?xml version="1.0"?>

<!-- generated on 05/14/09 12:17:25 by SUMO sumo Version dev-SVN-r7168
<configuration>

   <input>
      <net-file>net.net.xml</net-file>
      <route-files>input_routes.rou.xml</route-files>
      <additional-files>input_additional.add.xml</additional-files>
   </input>

   <time>
      <begin>0</begin>
      <end>200</end>
   </time>

   <processing>
      <no-duration-log>true</no-duration-log>
      <no-step-log>true</no-step-log>
   </processing>

</configuration>
-->

<tls-switch-states>
    <tlsstate time="0.00" id="0" subid="2" phase="4">rrrrGGggrrrrGGgg</tlsstate>
    <tlsstate time="20.00" id="0" subid="2" phase="5">rrrryyggrrrryygg</tlsstate>
    <tlsstate time="24.00" id="0" subid="2" phase="6">rrrrrrGGrrrrrrGG</tlsstate>
    <tlsstate time="27.00" id="0" subid="2" phase="7">rrrrrryyrrrrrryy</tlsstate>
    <tlsstate time="31.00" id="0" subid="2" phase="0">GGggrrrrGGggrrrr</tlsstate>
    <tlsstate time="51.00" id="0" subid="2" phase="1">yyggrrrryyggrrrr</tlsstate>
    <tlsstate time="55.00" id="0" subid="2" phase="2">rrGGrrrrrrGGrrrr</tlsstate>
    <tlsstate time="58.00" id="0" subid="2" phase="3">rryyrrrrrryyrrrr</tlsstate>
    <tlsstate time="62.00" id="0" subid="2" phase="4">rrrrGGggrrrrGGgg</tlsstate>
    <tlsstate time="82.00" id="0" subid="2" phase="5">rrrryyggrrrryygg</tlsstate>
    <tlsstate time="86.00" id="0" subid="2" phase="6">rrrrrrGGrrrrrrGG</tlsstate>
    <tlsstate time="89.00" id="0" subid="2" phase="7">rrrrrryyrrrrrryy</tlsstate>
    <tlsstate time="93.00" id="0" subid="2" phase="0">GGggrrrrGGggrrrr</tlsstate>
    <tlsstate time="113.00" id="0" subid="2" phase="1">yyggrrrryyggrrrr</tlsstate>
    <tlsstate time="117.00" id="0" subid="2" phase="2">rrGGrrrrrrGGrrrr</tlsstate>
    <tlsstate time="120.00" id="0" subid="2" phase="3">rryyrrrrrryyrrrr</tlsstate>
    <tlsstate time="124.00" id="0" subid="2" phase="4">rrrrGGggrrrrGGgg</tlsstate>
    <tlsstate time="144.00" id="0" subid="2" phase="5">rrrryyggrrrryygg</tlsstate>
    <tlsstate time="148.00" id="0" subid="2" phase="6">rrrrrrGGrrrrrrGG</tlsstate>
    <tlsstate time="151.00" id="0" subid="2" phase="7">rrrrrryyrrrrrryy</tlsstate>
    <tlsstate time="155.00" id="0" subid="2" phase="0">GGggrrrrGGggrrrr</tlsstate>
    <tlsstate time="175.00" id="0" subid="2" phase="1">yyggrrrryyggrrrr</tlsstate>
    <tlsstate time="179.00" id="0" subid="2" phase="2">rrGGrrrrrrGGrrrr</tlsstate>
    <tlsstate time="182.00" id="0" subid="2" phase="3">rryyrrrrrryyrrrr</tlsstate>
    <tlsstate time="186.00" id="0" subid="2" phase="4">rrrrGGggrrrrGGgg</tlsstate>
</tls-switch-states>
