<?xml version="1.0" encoding="UTF-8"?>

<!-- generated on 2025-04-04 21:54:38 by Eclipse SUMO sumo Version v1_22_0+1289-ef3b4f11f20
This data file and the accompanying materials
are made available under the terms of the Eclipse Public License v2.0
which accompanies this distribution, and is available at
http://www.eclipse.org/legal/epl-v20.html
This file may also be made available under the following Secondary
Licenses when the conditions for such availability set forth in the Eclipse
Public License 2.0 are satisfied: GNU General Public License, version 2
or later which is available at
https://www.gnu.org/licenses/old-licenses/gpl-2.0-standalone.html
SPDX-License-Identifier: EPL-2.0 OR GPL-2.0-or-later
<sumoConfiguration xmlns:xsi="http://www.w3.org/2001/XMLSchema-instance" xsi:noNamespaceSchemaLocation="http://sumo.dlr.de/xsd/sumoConfiguration.xsd">

    <input>
        <net-file value="elechybrid_1.net.xml"/>
        <route-files value="trolleybus.rou.xml"/>
        <additional-files value="busstop.add.xml,overheadwires.add.xml"/>
    </input>

    <output>
        <write-license value="true"/>
        <elechybrid-output value="elechybrid_out.xml"/>
        <elechybrid-output.precision value="4"/>
        <elechybrid-output.aggregated value="true"/>
        <overheadwiresegments-output value="overheadwires_out.xml"/>
        <substations-output value="substation_out.xml"/>
    </output>

    <time>
        <end value="100"/>
        <step-length value="0.5"/>
    </time>

    <processing>
        <default.speeddev value="0"/>
        <overhead-wire.solver value="true"/>
    </processing>

    <report>
        <xml-validation value="never"/>
        <duration-log.disable value="true"/>
        <no-step-log value="true"/>
    </report>

    <elechybrid_device>
        <device.elechybrid.explicit value="test1,test3"/>
    </elechybrid_device>

</sumoConfiguration>
-->

<elecHybrid-export-aggregated xmlns:xsi="http://www.w3.org/2001/XMLSchema-instance" xsi:noNamespaceSchemaLocation="http://sumo.dlr.de/xsd/" recuperationEnabled="1">
    <timestep time="0.00">
        <vehicle id="test1" maximumBatteryCapacity="50000.0000" actualBatteryCapacity="23000.0000" energyConsumed="0.0000" energyCharged="0.0000" power="nan" overheadWireId="" tractionSubstationId="" current="nan" circuitVoltage="nan" alphaCircuitSolver="nan" speed="0.0000" acceleration="0.0000" distance="0.0000" x="11.9185" y="-1.6000" z="0.0000" slope="0.0000" lane="gneE0_0" posOnLane="12.1000"/>
        <vehicle id="test3" maximumBatteryCapacity="50000.0000" actualBatteryCapacity="23000.0000" energyConsumed="0.0000" energyCharged="0.0000" power="nan" overheadWireId="" tractionSubstationId="" current="nan" circuitVoltage="nan" alphaCircuitSolver="nan" speed="0.0000" acceleration="0.0000" distance="0.0000" x="-88.2630" y="-108.0000" z="0.0000" slope="0.0000" lane="gneE6_0" posOnLane="12.1000"/>
    </timestep>
    <timestep time="0.50">
        <vehicle id="test1" maximumBatteryCapacity="50000.0000" actualBatteryCapacity="22999.0576" energyConsumed="0.9424" energyCharged="-0.9424" power="nan" overheadWireId="" tractionSubstationId="" current="nan" circuitVoltage="nan" alphaCircuitSolver="nan" speed="0.4000" acceleration="0.8000" distance="0.2000" x="12.1155" y="-1.6000" z="0.0000" slope="0.0000" lane="gneE0_0" posOnLane="12.3000"/>
        <vehicle id="test3" maximumBatteryCapacity="50000.0000" actualBatteryCapacity="22999.0576" energyConsumed="0.9424" energyCharged="-0.9424" power="nan" overheadWireId="" tractionSubstationId="" current="nan" circuitVoltage="nan" alphaCircuitSolver="nan" speed="0.4000" acceleration="0.8000" distance="0.2000" x="-88.0690" y="-104.8000" z="0.0000" slope="0.0000" lane="gneE6_1" posOnLane="12.3000"/>
    </timestep>
    <timestep time="1.00">
        <vehicle id="test1" maximumBatteryCapacity="50000.0000" actualBatteryCapacity="22996.9880" energyConsumed="2.0696" energyCharged="-2.0696" power="nan" overheadWireId="" tractionSubstationId="" current="nan" circuitVoltage="nan" alphaCircuitSolver="nan" speed="0.8000" acceleration="0.8000" distance="0.6000" x="12.5095" y="-1.6000" z="0.0000" slope="0.0000" lane="gneE0_0" posOnLane="12.7000"/>
        <vehicle id="test3" maximumBatteryCapacity="50000.0000" actualBatteryCapacity="23004.0576" energyConsumed="2.0696" energyCharged="5.0000" power="54900.7808" overheadWireId="ovrhdWrSgmnt_gneE6_2_0" tractionSubstationId="substation" current="92.5036" circuitVoltage="593.4986" alphaCircuitSolver="1.0000" speed="0.8000" acceleration="0.8000" distance="0.6000" x="-87.6810" y="-104.8000" z="0.0000" slope="0.0000" lane="gneE6_1" posOnLane="12.7000"/>
    </timestep>
    <timestep time="1.50">
        <vehicle id="test1" maximumBatteryCapacity="50000.0000" actualBatteryCapacity="22993.7910" energyConsumed="3.1970" energyCharged="-3.1970" power="nan" overheadWireId="" tractionSubstationId="" current="nan" circuitVoltage="nan" alphaCircuitSolver="nan" speed="1.2000" acceleration="0.8000" distance="1.2000" x="13.1005" y="-1.6000" z="0.0000" slope="0.0000" lane="gneE0_0" posOnLane="13.3000"/>
        <vehicle id="test3" maximumBatteryCapacity="50000.0000" actualBatteryCapacity="23009.0576" energyConsumed="3.1970" energyCharged="5.0000" power="63018.4574" overheadWireId="ovrhdWrSgmnt_gneE6_2_0" tractionSubstationId="substation" current="106.3531" circuitVoltage="592.5397" alphaCircuitSolver="1.0000" speed="1.2000" acceleration="0.8000" distance="1.2000" x="-87.0990" y="-104.8000" z="0.0000" slope="0.0000" lane="gneE6_1" posOnLane="13.3000"/>
    </timestep>
    <timestep time="2.00">
        <vehicle id="test1" maximumBatteryCapacity="50000.0000" actualBatteryCapacity="22989.4661" energyConsumed="4.3249" energyCharged="-4.3249" power="nan" overheadWireId="" tractionSubstationId="" current="nan" circuitVoltage="nan" alphaCircuitSolver="nan" speed="1.6000" acceleration="0.8000" distance="2.0000" x="13.8885" y="-1.6000" z="0.0000" slope="0.0000" lane="gneE0_0" posOnLane="14.1000"/>
        <vehicle id="test3" maximumBatteryCapacity="50000.0000" actualBatteryCapacity="23014.0576" energyConsumed="4.3249" energyCharged="5.0000" power="71139.5440" overheadWireId="ovrhdWrSgmnt_gneE6_2_0" tractionSubstationId="substation" current="120.2522" circuitVoltage="591.5864" alphaCircuitSolver="1.0000" speed="1.6000" acceleration="0.8000" distance="2.0000" x="-86.3230" y="-104.8000" z="0.0000" slope="0.0000" lane="gneE6_1" posOnLane="14.1000"/>
    </timestep>
    <timestep time="2.50">
        <vehicle id="test1" maximumBatteryCapacity="50000.0000" actualBatteryCapacity="22984.0126" energyConsumed="5.4535" energyCharged="-5.4535" power="nan" overheadWireId="" tractionSubstationId="" current="nan" circuitVoltage="nan" alphaCircuitSolver="nan" speed="2.0000" acceleration="0.8000" distance="3.0000" x="14.8735" y="-1.6000" z="0.0000" slope="0.0000" lane="gneE0_0" posOnLane="15.1000"/>
        <vehicle id="test3" maximumBatteryCapacity="50000.0000" actualBatteryCapacity="23019.0576" energyConsumed="5.4535" energyCharged="5.0000" power="79265.1772" overheadWireId="ovrhdWrSgmnt_gneE6_2_0" tractionSubstationId="substation" current="134.2020" circuitVoltage="590.6407" alphaCircuitSolver="1.0000" speed="2.0000" acceleration="0.8000" distance="3.0000" x="-85.3530" y="-104.8000" z="0.0000" slope="0.0000" lane="gneE6_1" posOnLane="15.1000"/>
    </timestep>
    <timestep time="3.00">
        <vehicle id="test1" maximumBatteryCapacity="50000.0000" actualBatteryCapacity="22977.4297" energyConsumed="6.5828" energyCharged="-6.5828" power="nan" overheadWireId="" tractionSubstationId="" current="nan" circuitVoltage="nan" alphaCircuitSolver="nan" speed="2.4000" acceleration="0.8000" distance="4.2000" x="16.0555" y="-1.6000" z="0.0000" slope="0.0000" lane="gneE0_0" posOnLane="16.3000"/>
        <vehicle id="test3" maximumBatteryCapacity="50000.0000" actualBatteryCapacity="23024.0576" energyConsumed="6.5828" energyCharged="5.0000" power="87396.4938" overheadWireId="ovrhdWrSgmnt_gneE6_2_0" tractionSubstationId="substation" current="148.2039" circuitVoltage="589.7045" alphaCircuitSolver="1.0000" speed="2.4000" acceleration="0.8000" distance="4.2000" x="-84.1890" y="-104.8000" z="0.0000" slope="0.0000" lane="gneE6_1" posOnLane="16.3000"/>
    </timestep>
    <timestep time="3.50">
        <vehicle id="test1" maximumBatteryCapacity="50000.0000" actualBatteryCapacity="22969.7166" energyConsumed="7.7131" energyCharged="-7.7131" power="nan" overheadWireId="" tractionSubstationId="" current="nan" circuitVoltage="nan" alphaCircuitSolver="nan" speed="2.8000" acceleration="0.8000" distance="5.6000" x="17.4345" y="-1.6000" z="0.0000" slope="0.0000" lane="gneE0_0" posOnLane="17.7000"/>
        <vehicle id="test3" maximumBatteryCapacity="50000.0000" actualBatteryCapacity="23029.0576" energyConsumed="7.7131" energyCharged="5.0000" power="95534.6304" overheadWireId="ovrhdWrSgmnt_gneE6_2_0" tractionSubstationId="substation" current="162.2588" circuitVoltage="588.7794" alphaCircuitSolver="1.0000" speed="2.8000" acceleration="0.8000" distance="5.6000" x="-82.8310" y="-104.8000" z="0.0000" slope="0.0000" lane="gneE6_1" posOnLane="17.7000"/>
    </timestep>
    <timestep time="4.00">
        <vehicle id="test1" maximumBatteryCapacity="50000.0000" actualBatteryCapacity="22960.8721" energyConsumed="8.8445" energyCharged="-8.8445" power="nan" overheadWireId="" tractionSubstationId="" current="nan" circuitVoltage="nan" alphaCircuitSolver="nan" speed="3.2000" acceleration="0.8000" distance="7.2000" x="19.0105" y="-1.6000" z="0.0000" slope="0.0000" lane="gneE0_0" posOnLane="19.3000"/>
        <vehicle id="test3" maximumBatteryCapacity="50000.0000" actualBatteryCapacity="23034.0576" energyConsumed="8.8445" energyCharged="5.0000" power="103680.7237" overheadWireId="ovrhdWrSgmnt_gneE6_2_0" tractionSubstationId="substation" current="176.3675" circuitVoltage="587.8675" alphaCircuitSolver="1.0000" speed="3.2000" acceleration="0.8000" distance="7.2000" x="-81.2790" y="-104.8000" z="0.0000" slope="0.0000" lane="gneE6_1" posOnLane="19.3000"/>
    </timestep>
    <timestep time="4.50">
        <vehicle id="test1" maximumBatteryCapacity="50000.0000" actualBatteryCapacity="22950.8948" energyConsumed="9.9772" energyCharged="-9.9772" power="nan" overheadWireId="" tractionSubstationId="" current="nan" circuitVoltage="nan" alphaCircuitSolver="nan" speed="3.6000" acceleration="0.8000" distance="9.0000" x="20.7835" y="-1.6000" z="0.0000" slope="0.0000" lane="gneE0_0" posOnLane="21.1000"/>
        <vehicle id="test3" maximumBatteryCapacity="50000.0000" actualBatteryCapacity="23039.0576" energyConsumed="9.9772" energyCharged="5.0000" power="111835.9104" overheadWireId="ovrhdWrSgmnt_gneE6_2_0" tractionSubstationId="substation" current="190.5306" circuitVoltage="586.9707" alphaCircuitSolver="1.0000" speed="3.6000" acceleration="0.8000" distance="9.0000" x="-79.5330" y="-104.8000" z="0.0000" slope="0.0000" lane="gneE6_1" posOnLane="21.1000"/>
    </timestep>
    <timestep time="5.00">
        <vehicle id="test1" maximumBatteryCapacity="50000.0000" actualBatteryCapacity="22939.7836" energyConsumed="11.1113" energyCharged="-11.1113" power="nan" overheadWireId="" tractionSubstationId="" current="nan" circuitVoltage="nan" alphaCircuitSolver="nan" speed="4.0000" acceleration="0.8000" distance="11.0000" x="22.7535" y="-1.6000" z="0.0000" slope="0.0000" lane="gneE0_0" posOnLane="23.1000"/>
        <vehicle id="test3" maximumBatteryCapacity="50000.0000" actualBatteryCapacity="23044.0576" energyConsumed="11.1113" energyCharged="5.0000" power="120001.3271" overheadWireId="ovrhdWrSgmnt_gneE6_2_0" tractionSubstationId="substation" current="204.7486" circuitVoltage="586.0910" alphaCircuitSolver="1.0000" speed="4.0000" acceleration="0.8000" distance="11.0000" x="-77.5930" y="-104.8000" z="0.0000" slope="0.0000" lane="gneE6_1" posOnLane="23.1000"/>
    </timestep>
    <timestep time="5.50">
        <vehicle id="test1" maximumBatteryCapacity="50000.0000" actualBatteryCapacity="22927.5366" energyConsumed="12.2470" energyCharged="-12.2470" power="nan" overheadWireId="" tractionSubstationId="" current="nan" circuitVoltage="nan" alphaCircuitSolver="nan" speed="4.4000" acceleration="0.8000" distance="13.2000" x="24.9205" y="-1.6000" z="0.0000" slope="0.0000" lane="gneE0_0" posOnLane="25.3000"/>
        <vehicle id="test3" maximumBatteryCapacity="50000.0000" actualBatteryCapacity="23049.0576" energyConsumed="12.2470" energyCharged="5.0000" power="128178.1105" overheadWireId="ovrhdWrSgmnt_gneE6_2_0" tractionSubstationId="substation" current="219.0217" circuitVoltage="585.2303" alphaCircuitSolver="1.0000" speed="4.4000" acceleration="0.8000" distance="13.2000" x="-75.4590" y="-104.8000" z="0.0000" slope="0.0000" lane="gneE6_1" posOnLane="25.3000"/>
    </timestep>
    <timestep time="6.00">
        <vehicle id="test1" maximumBatteryCapacity="50000.0000" actualBatteryCapacity="22914.1522" energyConsumed="13.3844" energyCharged="-13.3844" power="nan" overheadWireId="" tractionSubstationId="" current="nan" circuitVoltage="nan" alphaCircuitSolver="nan" speed="4.8000" acceleration="0.8000" distance="15.6000" x="27.2845" y="-1.6000" z="0.0000" slope="0.0000" lane="gneE0_0" posOnLane="27.7000"/>
        <vehicle id="test3" maximumBatteryCapacity="50000.0000" actualBatteryCapacity="23054.0576" energyConsumed="13.3844" energyCharged="5.0000" power="136367.3973" overheadWireId="ovrhdWrSgmnt_gneE6_2_0" tractionSubstationId="substation" current="233.3497" circuitVoltage="584.3907" alphaCircuitSolver="1.0000" speed="4.8000" acceleration="0.8000" distance="15.6000" x="-73.1310" y="-104.8000" z="0.0000" slope="0.0000" lane="gneE6_1" posOnLane="27.7000"/>
    </timestep>
    <timestep time="6.50">
        <vehicle id="test1" maximumBatteryCapacity="50000.0000" actualBatteryCapacity="22899.6286" energyConsumed="14.5237" energyCharged="-14.5237" power="nan" overheadWireId="" tractionSubstationId="" current="nan" circuitVoltage="nan" alphaCircuitSolver="nan" speed="5.2000" acceleration="0.8000" distance="18.2000" x="29.8455" y="-1.6000" z="0.0000" slope="0.0000" lane="gneE0_0" posOnLane="30.3000"/>
        <vehicle id="test3" maximumBatteryCapacity="50000.0000" actualBatteryCapacity="23059.0576" energyConsumed="14.5237" energyCharged="5.0000" power="144570.3241" overheadWireId="ovrhdWrSgmnt_gneE6_2_0" tractionSubstationId="substation" current="247.7326" circuitVoltage="583.5741" alphaCircuitSolver="1.0000" speed="5.2000" acceleration="0.8000" distance="18.2000" x="-70.6090" y="-104.8000" z="0.0000" slope="0.0000" lane="gneE6_1" posOnLane="30.3000"/>
    </timestep>
    <timestep time="7.00">
        <vehicle id="test1" maximumBatteryCapacity="50000.0000" actualBatteryCapacity="22883.9636" energyConsumed="15.6650" energyCharged="-15.6650" power="nan" overheadWireId="" tractionSubstationId="" current="nan" circuitVoltage="nan" alphaCircuitSolver="nan" speed="5.6000" acceleration="0.8000" distance="21.0000" x="32.6035" y="-1.6000" z="0.0000" slope="0.0000" lane="gneE0_0" posOnLane="33.1000"/>
        <vehicle id="test3" maximumBatteryCapacity="50000.0000" actualBatteryCapacity="23064.0576" energyConsumed="15.6650" energyCharged="5.0000" power="152788.0276" overheadWireId="ovrhdWrSgmnt_gneE6_2_0" tractionSubstationId="substation" current="262.1698" circuitVoltage="582.7828" alphaCircuitSolver="1.0000" speed="5.6000" acceleration="0.8000" distance="21.0000" x="-67.8930" y="-104.8000" z="0.0000" slope="0.0000" lane="gneE6_1" posOnLane="33.1000"/>
    </timestep>
    <timestep time="7.50">
        <vehicle id="test1" maximumBatteryCapacity="50000.0000" actualBatteryCapacity="22867.1550" energyConsumed="16.8086" energyCharged="-16.8086" power="nan" overheadWireId="" tractionSubstationId="" current="nan" circuitVoltage="nan" alphaCircuitSolver="nan" speed="6.0000" acceleration="0.8000" distance="24.0000" x="35.5585" y="-1.6000" z="0.0000" slope="0.0000" lane="gneE0_0" posOnLane="36.1000"/>
        <vehicle id="test3" maximumBatteryCapacity="50000.0000" actualBatteryCapacity="23069.0576" energyConsumed="16.8086" energyCharged="5.0000" power="161021.6445" overheadWireId="ovrhdWrSgmnt_gneE6_2_0" tractionSubstationId="substation" current="276.6606" circuitVoltage="582.0187" alphaCircuitSolver="1.0000" speed="6.0000" acceleration="0.8000" distance="24.0000" x="-64.9830" y="-104.8000" z="0.0000" slope="0.0000" lane="gneE6_1" posOnLane="36.1000"/>
    </timestep>
    <timestep time="8.00">
        <vehicle id="test1" maximumBatteryCapacity="50000.0000" actualBatteryCapacity="22849.2005" energyConsumed="17.9545" energyCharged="-17.9545" power="nan" overheadWireId="" tractionSubstationId="" current="nan" circuitVoltage="nan" alphaCircuitSolver="nan" speed="6.4000" acceleration="0.8000" distance="27.2000" x="38.7105" y="-1.6000" z="0.0000" slope="0.0000" lane="gneE0_0" posOnLane="39.3000"/>
        <vehicle id="test3" maximumBatteryCapacity="50000.0000" actualBatteryCapacity="23074.0576" energyConsumed="17.9545" energyCharged="5.0000" power="169272.3115" overheadWireId="ovrhdWrSgmnt_gneE6_2_0" tractionSubstationId="substation" current="291.2041" circuitVoltage="581.2841" alphaCircuitSolver="1.0000" speed="6.4000" acceleration="0.8000" distance="27.2000" x="-61.8790" y="-104.8000" z="0.0000" slope="0.0000" lane="gneE6_1" posOnLane="39.3000"/>
    </timestep>
    <timestep time="8.50">
        <vehicle id="test1" maximumBatteryCapacity="50000.0000" actualBatteryCapacity="22830.0976" energyConsumed="19.1029" energyCharged="-19.1029" power="nan" overheadWireId="" tractionSubstationId="" current="nan" circuitVoltage="nan" alphaCircuitSolver="nan" speed="6.8000" acceleration="0.8000" distance="30.6000" x="42.0595" y="-1.6000" z="0.0000" slope="0.0000" lane="gneE0_0" posOnLane="42.7000"/>
        <vehicle id="test3" maximumBatteryCapacity="50000.0000" actualBatteryCapacity="23079.0576" energyConsumed="19.1029" energyCharged="5.0000" power="177541.1652" overheadWireId="ovrhdWrSgmnt_gneE6_2_0" tractionSubstationId="substation" current="305.7991" circuitVoltage="580.5810" alphaCircuitSolver="1.0000" speed="6.8000" acceleration="0.8000" distance="30.6000" x="-58.5810" y="-104.8000" z="0.0000" slope="0.0000" lane="gneE6_1" posOnLane="42.7000"/>
    </timestep>
    <timestep time="9.00">
        <vehicle id="test1" maximumBatteryCapacity="50000.0000" actualBatteryCapacity="22809.8435" energyConsumed="20.2541" energyCharged="-20.2541" power="nan" overheadWireId="" tractionSubstationId="" current="nan" circuitVoltage="nan" alphaCircuitSolver="nan" speed="7.2000" acceleration="0.8000" distance="34.2000" x="45.6055" y="-1.6000" z="0.0000" slope="0.0000" lane="gneE0_0" posOnLane="46.3000"/>
        <vehicle id="test3" maximumBatteryCapacity="50000.0000" actualBatteryCapacity="23084.0576" energyConsumed="20.2541" energyCharged="5.0000" power="185829.3423" overheadWireId="ovrhdWrSgmnt_gneE6_2_0" tractionSubstationId="substation" current="320.4442" circuitVoltage="579.9117" alphaCircuitSolver="1.0000" speed="7.2000" acceleration="0.8000" distance="34.2000" x="-55.0890" y="-104.8000" z="0.0000" slope="0.0000" lane="gneE6_1" posOnLane="46.3000"/>
    </timestep>
    <timestep time="9.50">
        <vehicle id="test1" maximumBatteryCapacity="50000.0000" actualBatteryCapacity="22788.4355" energyConsumed="21.4081" energyCharged="-21.4081" power="nan" overheadWireId="" tractionSubstationId="" current="nan" circuitVoltage="nan" alphaCircuitSolver="nan" speed="7.6000" acceleration="0.8000" distance="38.0000" x="49.3485" y="-1.6000" z="0.0000" slope="0.0000" lane="gneE0_0" posOnLane="50.1000"/>
        <vehicle id="test3" maximumBatteryCapacity="50000.0000" actualBatteryCapacity="23089.0576" energyConsumed="21.4081" energyCharged="5.0000" power="194137.9795" overheadWireId="ovrhdWrSgmnt_gneE6_2_0" tractionSubstationId="substation" current="337.3790" circuitVoltage="575.4300" alphaCircuitSolver="1.0000" speed="7.6000" acceleration="0.8000" distance="38.0000" x="-51.4133" y="-104.8000" z="0.0000" slope="0.0000" lane=":gneJ9_0_1" posOnLane="0.1000"/>
    </timestep>
    <timestep time="10.00">
        <vehicle id="test1" maximumBatteryCapacity="50000.0000" actualBatteryCapacity="22765.8704" energyConsumed="22.5650" energyCharged="-22.5650" power="nan" overheadWireId="" tractionSubstationId="" current="nan" circuitVoltage="nan" alphaCircuitSolver="nan" speed="8.0000" acceleration="0.8000" distance="42.0000" x="53.2885" y="-1.6000" z="0.0000" slope="0.0000" lane="gneE0_0" posOnLane="54.1000"/>
        <vehicle id="test3" maximumBatteryCapacity="50000.0000" actualBatteryCapacity="23094.0576" energyConsumed="22.5650" energyCharged="5.0000" power="202468.2134" overheadWireId="ovrhdWrSgmnt_gneE7_0_1" tractionSubstationId="substation" current="349.8314" circuitVoltage="578.7594" alphaCircuitSolver="1.0000" speed="8.0000" acceleration="0.8000" distance="42.0000" x="-47.8984" y="-104.8000" z="0.0000" slope="0.0000" lane="gneE7_0" posOnLane="0.6400"/>
    </timestep>
    <timestep time="10.50">
        <vehicle id="test1" maximumBatteryCapacity="50000.0000" actualBatteryCapacity="22742.1453" energyConsumed="23.7252" energyCharged="-23.7252" power="nan" overheadWireId="" tractionSubstationId="" current="nan" circuitVoltage="nan" alphaCircuitSolver="nan" speed="8.4000" acceleration="0.8000" distance="46.2000" x="57.4255" y="-1.6000" z="0.0000" slope="0.0000" lane="gneE0_0" posOnLane="58.3000"/>
        <vehicle id="test3" maximumBatteryCapacity="50000.0000" actualBatteryCapacity="23099.0576" energyConsumed="23.7252" energyCharged="5.0000" power="210821.1807" overheadWireId="ovrhdWrSgmnt_gneE7_0_1" tractionSubstationId="substation" current="364.6112" circuitVoltage="578.2081" alphaCircuitSolver="1.0000" speed="8.4000" acceleration="0.8000" distance="46.2000" x="-43.9504" y="-104.8000" z="0.0000" slope="0.0000" lane="gneE7_0" posOnLane="4.8400"/>
    </timestep>
    <timestep time="11.00">
        <vehicle id="test1" maximumBatteryCapacity="50000.0000" actualBatteryCapacity="22717.2566" energyConsumed="24.8886" energyCharged="-24.8886" power="nan" overheadWireId="" tractionSubstationId="" current="nan" circuitVoltage="nan" alphaCircuitSolver="nan" speed="8.8000" acceleration="0.8000" distance="50.6000" x="61.7595" y="-1.6000" z="0.0000" slope="0.0000" lane="gneE0_0" posOnLane="62.7000"/>
        <vehicle id="test3" maximumBatteryCapacity="50000.0000" actualBatteryCapacity="23104.0576" energyConsumed="24.8886" energyCharged="5.0000" power="219198.0181" overheadWireId="ovrhdWrSgmnt_gneE7_0_1" tractionSubstationId="substation" current="379.4325" circuitVoltage="577.6996" alphaCircuitSolver="1.0000" speed="8.8000" acceleration="0.8000" distance="50.6000" x="-39.8144" y="-104.8000" z="0.0000" slope="0.0000" lane="gneE7_0" posOnLane="9.2400"/>
    </timestep>
    <timestep time="11.50">
        <vehicle id="test1" maximumBatteryCapacity="50000.0000" actualBatteryCapacity="22691.2011" energyConsumed="26.0555" energyCharged="-26.0555" power="nan" overheadWireId="" tractionSubstationId="" current="nan" circuitVoltage="nan" alphaCircuitSolver="nan" speed="9.2000" acceleration="0.8000" distance="55.2000" x="66.2905" y="-1.6000" z="0.0000" slope="0.0000" lane="gneE0_0" posOnLane="67.3000"/>
        <vehicle id="test3" maximumBatteryCapacity="50000.0000" actualBatteryCapacity="23109.0576" energyConsumed="26.0555" energyCharged="5.0000" power="227599.8623" overheadWireId="ovrhdWrSgmnt_gneE7_0_1" tractionSubstationId="substation" current="394.2925" circuitVoltage="577.2361" alphaCircuitSolver="1.0000" speed="9.2000" acceleration="0.8000" distance="55.2000" x="-35.4904" y="-104.8000" z="0.0000" slope="0.0000" lane="gneE7_0" posOnLane="13.8400"/>
    </timestep>
    <timestep time="12.00">
        <vehicle id="test1" maximumBatteryCapacity="50000.0000" actualBatteryCapacity="22663.9750" energyConsumed="27.2261" energyCharged="-27.2261" power="nan" overheadWireId="" tractionSubstationId="" current="nan" circuitVoltage="nan" alphaCircuitSolver="nan" speed="9.6000" acceleration="0.8000" distance="60.0000" x="71.0185" y="-1.6000" z="0.0000" slope="0.0000" lane="gneE0_0" posOnLane="72.1000"/>
        <vehicle id="test3" maximumBatteryCapacity="50000.0000" actualBatteryCapacity="23114.0576" energyConsumed="27.2261" energyCharged="5.0000" power="236027.8498" overheadWireId="ovrhdWrSgmnt_gneE7_0_1" tractionSubstationId="substation" current="409.1880" circuitVoltage="576.8200" alphaCircuitSolver="1.0000" speed="9.6000" acceleration="0.8000" distance="60.0000" x="-30.9784" y="-104.8000" z="0.0000" slope="0.0000" lane="gneE7_0" posOnLane="18.6400"/>
    </timestep>
    <timestep time="12.50">
        <vehicle id="test1" maximumBatteryCapacity="50000.0000" actualBatteryCapacity="22656.4454" energyConsumed="7.5297" energyCharged="-7.5297" power="nan" overheadWireId="" tractionSubstationId="" current="nan" circuitVoltage="nan" alphaCircuitSolver="nan" speed="9.4874" acceleration="-0.2253" distance="64.7437" x="75.6910" y="-1.6000" z="0.0000" slope="0.0000" lane="gneE0_0" posOnLane="76.8437"/>
        <vehicle id="test3" maximumBatteryCapacity="50000.0000" actualBatteryCapacity="23119.0576" energyConsumed="27.9167" energyCharged="5.0000" power="241000.0000" overheadWireId="ovrhdWrSgmnt_gneE7_0_1" tractionSubstationId="substation" current="417.8206" circuitVoltage="576.8026" alphaCircuitSolver="1.0000" speed="9.9884" acceleration="0.7768" distance="64.9942" x="-26.2838" y="-104.8000" z="0.0000" slope="0.0000" lane="gneE7_0" posOnLane="23.6342"/>
    </timestep>
    <timestep time="13.00">
        <vehicle id="test1" maximumBatteryCapacity="50000.0000" actualBatteryCapacity="22662.4544" energyConsumed="-6.0091" energyCharged="6.0091" power="nan" overheadWireId="" tractionSubstationId="" current="nan" circuitVoltage="nan" alphaCircuitSolver="nan" speed="8.9874" acceleration="-1.0000" distance="69.2374" x="80.1173" y="-1.6000" z="0.0000" slope="0.0000" lane="gneE0_0" posOnLane="81.3374"/>
        <vehicle id="test3" maximumBatteryCapacity="50000.0000" actualBatteryCapacity="23124.0576" energyConsumed="27.9167" energyCharged="5.0000" power="241000.0000" overheadWireId="ovrhdWrSgmnt_gneE7_0_1" tractionSubstationId="substation" current="417.4524" circuitVoltage="577.3113" alphaCircuitSolver="1.0000" speed="10.3508" acceleration="0.7247" distance="70.1696" x="-21.4190" y="-104.8000" z="0.0000" slope="0.0000" lane="gneE7_0" posOnLane="28.8096"/>
    </timestep>
    <timestep time="13.50">
        <vehicle id="test1" maximumBatteryCapacity="50000.0000" actualBatteryCapacity="22668.1689" energyConsumed="-5.7145" energyCharged="5.7145" power="nan" overheadWireId="" tractionSubstationId="" current="nan" circuitVoltage="nan" alphaCircuitSolver="nan" speed="8.4874" acceleration="-1.0000" distance="73.4811" x="84.2973" y="-1.6000" z="0.0000" slope="0.0000" lane="gneE0_0" posOnLane="85.5811"/>
        <vehicle id="test3" maximumBatteryCapacity="50000.0000" actualBatteryCapacity="23129.0576" energyConsumed="27.9167" energyCharged="5.0000" power="241000.0000" overheadWireId="ovrhdWrSgmnt_gneE7_0_1" tractionSubstationId="substation" current="417.0735" circuitVoltage="577.8357" alphaCircuitSolver="1.0000" speed="10.6904" acceleration="0.6792" distance="75.5148" x="-16.3945" y="-104.8000" z="0.0000" slope="0.0000" lane="gneE7_0" posOnLane="34.1548"/>
    </timestep>
    <timestep time="14.00">
        <vehicle id="test1" maximumBatteryCapacity="50000.0000" actualBatteryCapacity="22673.5847" energyConsumed="-5.4157" energyCharged="5.4157" power="nan" overheadWireId="" tractionSubstationId="" current="nan" circuitVoltage="nan" alphaCircuitSolver="nan" speed="7.9874" acceleration="-1.0000" distance="77.4747" x="88.2311" y="-1.6000" z="0.0000" slope="0.0000" lane="gneE0_0" posOnLane="89.5747"/>
        <vehicle id="test3" maximumBatteryCapacity="50000.0000" actualBatteryCapacity="23134.0576" energyConsumed="27.9167" energyCharged="5.0000" power="241000.0000" overheadWireId="ovrhdWrSgmnt_gneE7_0_1" tractionSubstationId="substation" current="416.6848" circuitVoltage="578.3748" alphaCircuitSolver="1.0000" speed="11.0099" acceleration="0.6390" distance="81.0197" x="-11.2199" y="-104.8000" z="0.0000" slope="0.0000" lane="gneE7_0" posOnLane="39.6597"/>
    </timestep>
    <timestep time="14.50">
        <vehicle id="test1" maximumBatteryCapacity="50000.0000" actualBatteryCapacity="22678.6976" energyConsumed="-5.1129" energyCharged="5.1129" power="nan" overheadWireId="" tractionSubstationId="" current="nan" circuitVoltage="nan" alphaCircuitSolver="nan" speed="7.4874" acceleration="-1.0000" distance="81.2184" x="91.9186" y="-1.6000" z="0.0000" slope="0.0000" lane="gneE0_0" posOnLane="93.3184"/>
        <vehicle id="test3" maximumBatteryCapacity="50000.0000" actualBatteryCapacity="23139.0576" energyConsumed="27.9167" energyCharged="5.0000" power="241000.0000" overheadWireId="ovrhdWrSgmnt_gneE7_0_1" tractionSubstationId="substation" current="416.2870" circuitVoltage="578.9275" alphaCircuitSolver="1.0000" speed="11.3114" acceleration="0.6031" distance="86.6754" x="-5.9035" y="-104.8000" z="0.0000" slope="0.0000" lane="gneE7_0" posOnLane="45.3154"/>
    </timestep>
    <timestep time="15.00">
        <vehicle id="test1" maximumBatteryCapacity="50000.0000" actualBatteryCapacity="22683.5040" energyConsumed="-4.8064" energyCharged="4.8064" power="nan" overheadWireId="" tractionSubstationId="" current="nan" circuitVoltage="nan" alphaCircuitSolver="nan" speed="6.9874" acceleration="-1.0000" distance="84.7121" x="95.3599" y="-1.6000" z="0.0000" slope="0.0000" lane="gneE0_0" posOnLane="96.8121"/>