<?xml version="1.0" encoding="UTF-8"?>

<!-- generated on Mon Mar 15 11:36:16 2021 by Eclipse SUMO sumo Version v1_8_0+1643-fc484b2
This data file and the accompanying materials
are made available under the terms of the Eclipse Public License v2.0
which accompanies this distribution, and is available at
http://www.eclipse.org/legal/epl-v20.html
SPDX-License-Identifier: EPL-2.0
<configuration xmlns:xsi="http://www.w3.org/2001/XMLSchema-instance" xsi:noNamespaceSchemaLocation="http://sumo.dlr.de/xsd/sumoConfiguration.xsd">

    <input>
        <net-file value="elechybrid_1.net.xml"/>
        <route-files value="trolleybus.rou.xml"/>
        <additional-files value="busstop.add.xml,overheadwires.add.xml"/>
    </input>

    <output>
        <write-license value="true"/>
        <elechybrid-output value="elechybrid_out.xml"/>
        <elechybrid-output.precision value="4"/>
        <elechybrid-output.aggregated value="true"/>
        <overheadwiresegments-output value="overheadwires_out.xml"/>
        <substations-output value="substation_out.xml"/>
    </output>

    <time>
        <end value="100"/>
        <step-length value="0.5"/>
    </time>

    <processing>
        <default.speeddev value="0"/>
        <overhead-wire-solver value="true"/>
    </processing>

    <report>
        <xml-validation value="never"/>
        <xml-validation.routes value="never"/>
        <duration-log.disable value="true"/>
        <no-step-log value="true"/>
    </report>

    <elechybrid_device>
        <device.elechybrid.explicit value="test1,test3"/>
    </elechybrid_device>

    <gui_only>
        <tracker-interval value="0.5"/>
    </gui_only>

</configuration>
-->

<elecHybrid-export-aggregated>
    <timestep time="0.00">
        <vehicle id="test1" maximumBatteryCapacity="50000.0000" actualBatteryCapacity="23000.0000" energyConsumed="0.0000" energyCharged="0.0000" power="nan" overheadWireId="" tractionSubstationId="" current="nan" circuitVoltage="nan" alphaCircuitSolver="nan" speed="0.0000" acceleration="0.0000" distance="0.0000" x="11.9185" y="-1.6000" z="0.0000" slope="0.0000" lane="gneE0_0" posOnLane="12.1000"/>
        <vehicle id="test3" maximumBatteryCapacity="50000.0000" actualBatteryCapacity="23000.0000" energyConsumed="0.0000" energyCharged="0.0000" power="nan" overheadWireId="" tractionSubstationId="" current="nan" circuitVoltage="nan" alphaCircuitSolver="nan" speed="0.0000" acceleration="0.0000" distance="0.0000" x="-88.2630" y="-108.0000" z="0.0000" slope="0.0000" lane="gneE6_0" posOnLane="12.1000"/>
    </timestep>
    <timestep time="0.50">
        <vehicle id="test1" maximumBatteryCapacity="50000.0000" actualBatteryCapacity="22999.0446" energyConsumed="0.9554" energyCharged="-0.9554" power="nan" overheadWireId="" tractionSubstationId="" current="nan" circuitVoltage="nan" alphaCircuitSolver="nan" speed="0.4000" acceleration="0.8000" distance="0.2000" x="12.1155" y="-1.6000" z="0.0000" slope="0.0000" lane="gneE0_0" posOnLane="12.3000"/>
        <vehicle id="test3" maximumBatteryCapacity="50000.0000" actualBatteryCapacity="22999.0446" energyConsumed="0.9554" energyCharged="-0.9554" power="nan" overheadWireId="" tractionSubstationId="" current="nan" circuitVoltage="nan" alphaCircuitSolver="nan" speed="0.4000" acceleration="0.8000" distance="0.2000" x="-88.0690" y="-104.8000" z="0.0000" slope="0.0000" lane="gneE6_1" posOnLane="12.3000"/>
    </timestep>
    <timestep time="1.00">
        <vehicle id="test1" maximumBatteryCapacity="50000.0000" actualBatteryCapacity="22996.9670" energyConsumed="2.0776" energyCharged="-2.0776" power="nan" overheadWireId="" tractionSubstationId="" current="nan" circuitVoltage="nan" alphaCircuitSolver="nan" speed="0.8000" acceleration="0.8000" distance="0.6000" x="12.5095" y="-1.6000" z="0.0000" slope="0.0000" lane="gneE0_0" posOnLane="12.7000"/>
        <vehicle id="test3" maximumBatteryCapacity="50000.0000" actualBatteryCapacity="23004.6002" energyConsumed="2.0776" energyCharged="5.5556" power="54958.5640" overheadWireId="ovrhdWrSgmnt_gneE6_2_0" tractionSubstationId="substation" current="92.6021" circuitVoltage="593.4917" alphaCircuitSolver="1.0000" speed="0.8000" acceleration="0.8000" distance="0.6000" x="-87.6810" y="-104.8000" z="0.0000" slope="0.0000" lane="gneE6_1" posOnLane="12.7000"/>
    </timestep>
    <timestep time="1.50">
        <vehicle id="test1" maximumBatteryCapacity="50000.0000" actualBatteryCapacity="22993.7669" energyConsumed="3.2001" energyCharged="-3.2001" power="nan" overheadWireId="" tractionSubstationId="" current="nan" circuitVoltage="nan" alphaCircuitSolver="nan" speed="1.2000" acceleration="0.8000" distance="1.2000" x="13.1005" y="-1.6000" z="0.0000" slope="0.0000" lane="gneE0_0" posOnLane="13.3000"/>
        <vehicle id="test3" maximumBatteryCapacity="50000.0000" actualBatteryCapacity="23010.1557" energyConsumed="3.2001" energyCharged="5.5556" power="63040.6885" overheadWireId="ovrhdWrSgmnt_gneE6_2_0" tractionSubstationId="substation" current="106.3911" circuitVoltage="592.5370" alphaCircuitSolver="1.0000" speed="1.2000" acceleration="0.8000" distance="1.2000" x="-87.0990" y="-104.8000" z="0.0000" slope="0.0000" lane="gneE6_1" posOnLane="13.3000"/>
    </timestep>
    <timestep time="2.00">
        <vehicle id="test1" maximumBatteryCapacity="50000.0000" actualBatteryCapacity="22989.4439" energyConsumed="4.3231" energyCharged="-4.3231" power="nan" overheadWireId="" tractionSubstationId="" current="nan" circuitVoltage="nan" alphaCircuitSolver="nan" speed="1.6000" acceleration="0.8000" distance="2.0000" x="13.8885" y="-1.6000" z="0.0000" slope="0.0000" lane="gneE0_0" posOnLane="14.1000"/>
        <vehicle id="test3" maximumBatteryCapacity="50000.0000" actualBatteryCapacity="23015.7113" energyConsumed="4.3231" energyCharged="5.5556" power="71126.2231" overheadWireId="ovrhdWrSgmnt_gneE6_2_0" tractionSubstationId="substation" current="120.2293" circuitVoltage="591.5880" alphaCircuitSolver="1.0000" speed="1.6000" acceleration="0.8000" distance="2.0000" x="-86.3230" y="-104.8000" z="0.0000" slope="0.0000" lane="gneE6_1" posOnLane="14.1000"/>
    </timestep>
    <timestep time="2.50">
        <vehicle id="test1" maximumBatteryCapacity="50000.0000" actualBatteryCapacity="22983.9972" energyConsumed="5.4467" energyCharged="-5.4467" power="nan" overheadWireId="" tractionSubstationId="" current="nan" circuitVoltage="nan" alphaCircuitSolver="nan" speed="2.0000" acceleration="0.8000" distance="3.0000" x="14.8735" y="-1.6000" z="0.0000" slope="0.0000" lane="gneE0_0" posOnLane="15.1000"/>
        <vehicle id="test3" maximumBatteryCapacity="50000.0000" actualBatteryCapacity="23021.2668" energyConsumed="5.4467" energyCharged="5.5556" power="79216.3043" overheadWireId="ovrhdWrSgmnt_gneE6_2_0" tractionSubstationId="substation" current="134.1179" circuitVoltage="590.6466" alphaCircuitSolver="1.0000" speed="2.0000" acceleration="0.8000" distance="3.0000" x="-85.3530" y="-104.8000" z="0.0000" slope="0.0000" lane="gneE6_1" posOnLane="15.1000"/>
    </timestep>
    <timestep time="3.00">
        <vehicle id="test1" maximumBatteryCapacity="50000.0000" actualBatteryCapacity="22977.4260" energyConsumed="6.5711" energyCharged="-6.5711" power="nan" overheadWireId="" tractionSubstationId="" current="nan" circuitVoltage="nan" alphaCircuitSolver="nan" speed="2.4000" acceleration="0.8000" distance="4.2000" x="16.0555" y="-1.6000" z="0.0000" slope="0.0000" lane="gneE0_0" posOnLane="16.3000"/>
        <vehicle id="test3" maximumBatteryCapacity="50000.0000" actualBatteryCapacity="23026.8224" energyConsumed="6.5711" energyCharged="5.5556" power="87312.0689" overheadWireId="ovrhdWrSgmnt_gneE6_2_0" tractionSubstationId="substation" current="148.0582" circuitVoltage="589.7146" alphaCircuitSolver="1.0000" speed="2.4000" acceleration="0.8000" distance="4.2000" x="-84.1890" y="-104.8000" z="0.0000" slope="0.0000" lane="gneE6_1" posOnLane="16.3000"/>
    </timestep>
    <timestep time="3.50">
        <vehicle id="test1" maximumBatteryCapacity="50000.0000" actualBatteryCapacity="22969.7296" energyConsumed="7.6965" energyCharged="-7.6965" power="nan" overheadWireId="" tractionSubstationId="" current="nan" circuitVoltage="nan" alphaCircuitSolver="nan" speed="2.8000" acceleration="0.8000" distance="5.6000" x="17.4345" y="-1.6000" z="0.0000" slope="0.0000" lane="gneE0_0" posOnLane="17.7000"/>
        <vehicle id="test3" maximumBatteryCapacity="50000.0000" actualBatteryCapacity="23032.3780" energyConsumed="7.6965" energyCharged="5.5556" power="95414.6535" overheadWireId="ovrhdWrSgmnt_gneE6_2_0" tractionSubstationId="substation" current="162.0511" circuitVoltage="588.7938" alphaCircuitSolver="1.0000" speed="2.8000" acceleration="0.8000" distance="5.6000" x="-82.8310" y="-104.8000" z="0.0000" slope="0.0000" lane="gneE6_1" posOnLane="17.7000"/>
    </timestep>
    <timestep time="4.00">
        <vehicle id="test1" maximumBatteryCapacity="50000.0000" actualBatteryCapacity="22960.9066" energyConsumed="8.8229" energyCharged="-8.8229" power="nan" overheadWireId="" tractionSubstationId="" current="nan" circuitVoltage="nan" alphaCircuitSolver="nan" speed="3.2000" acceleration="0.8000" distance="7.2000" x="19.0105" y="-1.6000" z="0.0000" slope="0.0000" lane="gneE0_0" posOnLane="19.3000"/>
        <vehicle id="test3" maximumBatteryCapacity="50000.0000" actualBatteryCapacity="23037.9335" energyConsumed="8.8229" energyCharged="5.5556" power="103525.1948" overheadWireId="ovrhdWrSgmnt_gneE6_2_0" tractionSubstationId="substation" current="176.0974" circuitVoltage="587.8861" alphaCircuitSolver="1.0000" speed="3.2000" acceleration="0.8000" distance="7.2000" x="-81.2790" y="-104.8000" z="0.0000" slope="0.0000" lane="gneE6_1" posOnLane="19.3000"/>
    </timestep>
    <timestep time="4.50">
        <vehicle id="test1" maximumBatteryCapacity="50000.0000" actualBatteryCapacity="22950.9559" energyConsumed="9.9507" energyCharged="-9.9507" power="nan" overheadWireId="" tractionSubstationId="" current="nan" circuitVoltage="nan" alphaCircuitSolver="nan" speed="3.6000" acceleration="0.8000" distance="9.0000" x="20.7835" y="-1.6000" z="0.0000" slope="0.0000" lane="gneE0_0" posOnLane="21.1000"/>
        <vehicle id="test3" maximumBatteryCapacity="50000.0000" actualBatteryCapacity="23043.4891" energyConsumed="9.9507" energyCharged="5.5556" power="111644.8295" overheadWireId="ovrhdWrSgmnt_gneE6_2_0" tractionSubstationId="substation" current="190.1977" circuitVoltage="586.9935" alphaCircuitSolver="1.0000" speed="3.6000" acceleration="0.8000" distance="9.0000" x="-79.5330" y="-104.8000" z="0.0000" slope="0.0000" lane="gneE6_1" posOnLane="21.1000"/>
    </timestep>
    <timestep time="5.00">
        <vehicle id="test1" maximumBatteryCapacity="50000.0000" actualBatteryCapacity="22939.8761" energyConsumed="11.0798" energyCharged="-11.0798" power="nan" overheadWireId="" tractionSubstationId="" current="nan" circuitVoltage="nan" alphaCircuitSolver="nan" speed="4.0000" acceleration="0.8000" distance="11.0000" x="22.7535" y="-1.6000" z="0.0000" slope="0.0000" lane="gneE0_0" posOnLane="23.1000"/>
        <vehicle id="test3" maximumBatteryCapacity="50000.0000" actualBatteryCapacity="23049.0446" energyConsumed="11.0798" energyCharged="5.5556" power="119774.6942" overheadWireId="ovrhdWrSgmnt_gneE6_2_0" tractionSubstationId="substation" current="204.3526" circuitVoltage="586.1179" alphaCircuitSolver="1.0000" speed="4.0000" acceleration="0.8000" distance="11.0000" x="-77.5930" y="-104.8000" z="0.0000" slope="0.0000" lane="gneE6_1" posOnLane="23.1000"/>
    </timestep>
    <timestep time="5.50">
        <vehicle id="test1" maximumBatteryCapacity="50000.0000" actualBatteryCapacity="22927.6656" energyConsumed="12.2105" energyCharged="-12.2105" power="nan" overheadWireId="" tractionSubstationId="" current="nan" circuitVoltage="nan" alphaCircuitSolver="nan" speed="4.4000" acceleration="0.8000" distance="13.2000" x="24.9205" y="-1.6000" z="0.0000" slope="0.0000" lane="gneE0_0" posOnLane="25.3000"/>
        <vehicle id="test3" maximumBatteryCapacity="50000.0000" actualBatteryCapacity="23054.6002" energyConsumed="12.2105" energyCharged="5.5556" power="127915.9256" overheadWireId="ovrhdWrSgmnt_gneE6_2_0" tractionSubstationId="substation" current="218.5621" circuitVoltage="585.2613" alphaCircuitSolver="1.0000" speed="4.4000" acceleration="0.8000" distance="13.2000" x="-75.4590" y="-104.8000" z="0.0000" slope="0.0000" lane="gneE6_1" posOnLane="25.3000"/>
    </timestep>
    <timestep time="6.00">
        <vehicle id="test1" maximumBatteryCapacity="50000.0000" actualBatteryCapacity="22914.3226" energyConsumed="13.3430" energyCharged="-13.3430" power="nan" overheadWireId="" tractionSubstationId="" current="nan" circuitVoltage="nan" alphaCircuitSolver="nan" speed="4.8000" acceleration="0.8000" distance="15.6000" x="27.2845" y="-1.6000" z="0.0000" slope="0.0000" lane="gneE0_0" posOnLane="27.7000"/>
        <vehicle id="test3" maximumBatteryCapacity="50000.0000" actualBatteryCapacity="23060.1557" energyConsumed="13.3430" energyCharged="5.5556" power="136069.6604" overheadWireId="ovrhdWrSgmnt_gneE6_2_0" tractionSubstationId="substation" current="232.8263" circuitVoltage="584.4257" alphaCircuitSolver="1.0000" speed="4.8000" acceleration="0.8000" distance="15.6000" x="-73.1310" y="-104.8000" z="0.0000" slope="0.0000" lane="gneE6_1" posOnLane="27.7000"/>
    </timestep>
    <timestep time="6.50">
        <vehicle id="test1" maximumBatteryCapacity="50000.0000" actualBatteryCapacity="22899.8452" energyConsumed="14.4774" energyCharged="-14.4774" power="nan" overheadWireId="" tractionSubstationId="" current="nan" circuitVoltage="nan" alphaCircuitSolver="nan" speed="5.2000" acceleration="0.8000" distance="18.2000" x="29.8455" y="-1.6000" z="0.0000" slope="0.0000" lane="gneE0_0" posOnLane="30.3000"/>
        <vehicle id="test3" maximumBatteryCapacity="50000.0000" actualBatteryCapacity="23065.7113" energyConsumed="14.4774" energyCharged="5.5556" power="144237.0352" overheadWireId="ovrhdWrSgmnt_gneE6_2_0" tractionSubstationId="substation" current="247.1450" circuitVoltage="583.6131" alphaCircuitSolver="1.0000" speed="5.2000" acceleration="0.8000" distance="18.2000" x="-70.6090" y="-104.8000" z="0.0000" slope="0.0000" lane="gneE6_1" posOnLane="30.3000"/>
    </timestep>
    <timestep time="7.00">
        <vehicle id="test1" maximumBatteryCapacity="50000.0000" actualBatteryCapacity="22884.2314" energyConsumed="15.6138" energyCharged="-15.6138" power="nan" overheadWireId="" tractionSubstationId="" current="nan" circuitVoltage="nan" alphaCircuitSolver="nan" speed="5.6000" acceleration="0.8000" distance="21.0000" x="32.6035" y="-1.6000" z="0.0000" slope="0.0000" lane="gneE0_0" posOnLane="33.1000"/>
        <vehicle id="test3" maximumBatteryCapacity="50000.0000" actualBatteryCapacity="23071.2668" energyConsumed="15.6138" energyCharged="5.5556" power="152419.1867" overheadWireId="ovrhdWrSgmnt_gneE6_2_0" tractionSubstationId="substation" current="261.5177" circuitVoltage="582.8256" alphaCircuitSolver="1.0000" speed="5.6000" acceleration="0.8000" distance="21.0000" x="-67.8930" y="-104.8000" z="0.0000" slope="0.0000" lane="gneE6_1" posOnLane="33.1000"/>
    </timestep>
    <timestep time="7.50">
        <vehicle id="test1" maximumBatteryCapacity="50000.0000" actualBatteryCapacity="22867.4790" energyConsumed="16.7524" energyCharged="-16.7524" power="nan" overheadWireId="" tractionSubstationId="" current="nan" circuitVoltage="nan" alphaCircuitSolver="nan" speed="6.0000" acceleration="0.8000" distance="24.0000" x="35.5585" y="-1.6000" z="0.0000" slope="0.0000" lane="gneE0_0" posOnLane="36.1000"/>
        <vehicle id="test3" maximumBatteryCapacity="50000.0000" actualBatteryCapacity="23076.8224" energyConsumed="16.7524" energyCharged="5.5556" power="160617.2517" overheadWireId="ovrhdWrSgmnt_gneE6_2_0" tractionSubstationId="substation" current="275.9437" circuitVoltage="582.0653" alphaCircuitSolver="1.0000" speed="6.0000" acceleration="0.8000" distance="24.0000" x="-64.9830" y="-104.8000" z="0.0000" slope="0.0000" lane="gneE6_1" posOnLane="36.1000"/>
    </timestep>
    <timestep time="8.00">
        <vehicle id="test1" maximumBatteryCapacity="50000.0000" actualBatteryCapacity="22849.5856" energyConsumed="17.8934" energyCharged="-17.8934" power="nan" overheadWireId="" tractionSubstationId="" current="nan" circuitVoltage="nan" alphaCircuitSolver="nan" speed="6.4000" acceleration="0.8000" distance="27.2000" x="38.7105" y="-1.6000" z="0.0000" slope="0.0000" lane="gneE0_0" posOnLane="39.3000"/>
        <vehicle id="test3" maximumBatteryCapacity="50000.0000" actualBatteryCapacity="23082.3780" energyConsumed="17.8934" energyCharged="5.5556" power="168832.3666" overheadWireId="ovrhdWrSgmnt_gneE6_2_0" tractionSubstationId="substation" current="290.4222" circuitVoltage="581.3343" alphaCircuitSolver="1.0000" speed="6.4000" acceleration="0.8000" distance="27.2000" x="-61.8790" y="-104.8000" z="0.0000" slope="0.0000" lane="gneE6_1" posOnLane="39.3000"/>
    </timestep>
    <timestep time="8.50">
        <vehicle id="test1" maximumBatteryCapacity="50000.0000" actualBatteryCapacity="22830.5487" energyConsumed="19.0369" energyCharged="-19.0369" power="nan" overheadWireId="" tractionSubstationId="" current="nan" circuitVoltage="nan" alphaCircuitSolver="nan" speed="6.8000" acceleration="0.8000" distance="30.6000" x="42.0595" y="-1.6000" z="0.0000" slope="0.0000" lane="gneE0_0" posOnLane="42.7000"/>
        <vehicle id="test3" maximumBatteryCapacity="50000.0000" actualBatteryCapacity="23087.9335" energyConsumed="19.0369" energyCharged="5.5556" power="177065.6683" overheadWireId="ovrhdWrSgmnt_gneE6_2_0" tractionSubstationId="substation" current="304.9519" circuitVoltage="580.6348" alphaCircuitSolver="1.0000" speed="6.8000" acceleration="0.8000" distance="30.6000" x="-58.5810" y="-104.8000" z="0.0000" slope="0.0000" lane="gneE6_1" posOnLane="42.7000"/>
    </timestep>
    <timestep time="9.00">
        <vehicle id="test1" maximumBatteryCapacity="50000.0000" actualBatteryCapacity="22810.3656" energyConsumed="20.1831" energyCharged="-20.1831" power="nan" overheadWireId="" tractionSubstationId="" current="nan" circuitVoltage="nan" alphaCircuitSolver="nan" speed="7.2000" acceleration="0.8000" distance="34.2000" x="45.6055" y="-1.6000" z="0.0000" slope="0.0000" lane="gneE0_0" posOnLane="46.3000"/>
        <vehicle id="test3" maximumBatteryCapacity="50000.0000" actualBatteryCapacity="23093.4891" energyConsumed="20.1831" energyCharged="5.5556" power="185318.2935" overheadWireId="ovrhdWrSgmnt_gneE6_2_0" tractionSubstationId="substation" current="319.5314" circuitVoltage="579.9690" alphaCircuitSolver="1.0000" speed="7.2000" acceleration="0.8000" distance="34.2000" x="-55.0890" y="-104.8000" z="0.0000" slope="0.0000" lane="gneE6_1" posOnLane="46.3000"/>
    </timestep>
    <timestep time="9.50">
        <vehicle id="test1" maximumBatteryCapacity="50000.0000" actualBatteryCapacity="22789.0335" energyConsumed="21.3321" energyCharged="-21.3321" power="nan" overheadWireId="" tractionSubstationId="" current="nan" circuitVoltage="nan" alphaCircuitSolver="nan" speed="7.6000" acceleration="0.8000" distance="38.0000" x="49.3485" y="-1.6000" z="0.0000" slope="0.0000" lane="gneE0_0" posOnLane="50.1000"/>
        <vehicle id="test3" maximumBatteryCapacity="50000.0000" actualBatteryCapacity="23099.0446" energyConsumed="21.3321" energyCharged="5.5556" power="193591.3786" overheadWireId="ovrhdWrSgmnt_gneE6_2_0" tractionSubstationId="substation" current="336.3868" circuitVoltage="575.5023" alphaCircuitSolver="1.0000" speed="7.6000" acceleration="0.8000" distance="38.0000" x="-51.4133" y="-104.8000" z="0.0000" slope="0.0000" lane=":gneJ9_0_1" posOnLane="0.1000"/>
    </timestep>
    <timestep time="10.00">
        <vehicle id="test1" maximumBatteryCapacity="50000.0000" actualBatteryCapacity="22766.5493" energyConsumed="22.4842" energyCharged="-22.4842" power="nan" overheadWireId="" tractionSubstationId="" current="nan" circuitVoltage="nan" alphaCircuitSolver="nan" speed="8.0000" acceleration="0.8000" distance="42.0000" x="53.2885" y="-1.6000" z="0.0000" slope="0.0000" lane="gneE0_0" posOnLane="54.1000"/>
        <vehicle id="test3" maximumBatteryCapacity="50000.0000" actualBatteryCapacity="23104.6002" energyConsumed="22.4842" energyCharged="5.5556" power="201886.0605" overheadWireId="ovrhdWrSgmnt_gneE7_0_1" tractionSubstationId="substation" current="348.7873" circuitVoltage="578.8228" alphaCircuitSolver="1.0000" speed="8.0000" acceleration="0.8000" distance="42.0000" x="-47.8984" y="-104.8000" z="0.0000" slope="0.0000" lane="gneE7_0" posOnLane="0.6400"/>
    </timestep>
    <timestep time="10.50">
        <vehicle id="test1" maximumBatteryCapacity="50000.0000" actualBatteryCapacity="22742.9100" energyConsumed="23.6394" energyCharged="-23.6394" power="nan" overheadWireId="" tractionSubstationId="" current="nan" circuitVoltage="nan" alphaCircuitSolver="nan" speed="8.4000" acceleration="0.8000" distance="46.2000" x="57.4255" y="-1.6000" z="0.0000" slope="0.0000" lane="gneE0_0" posOnLane="58.3000"/>
        <vehicle id="test3" maximumBatteryCapacity="50000.0000" actualBatteryCapacity="23110.1557" energyConsumed="23.6394" energyCharged="5.5556" power="210203.4759" overheadWireId="ovrhdWrSgmnt_gneE7_0_1" tractionSubstationId="substation" current="363.5012" circuitVoltage="578.2745" alphaCircuitSolver="1.0000" speed="8.4000" acceleration="0.8000" distance="46.2000" x="-43.9504" y="-104.8000" z="0.0000" slope="0.0000" lane="gneE7_0" posOnLane="4.8400"/>
    </timestep>
    <timestep time="11.00">
        <vehicle id="test1" maximumBatteryCapacity="50000.0000" actualBatteryCapacity="22718.1121" energyConsumed="24.7979" energyCharged="-24.7979" power="nan" overheadWireId="" tractionSubstationId="" current="nan" circuitVoltage="nan" alphaCircuitSolver="nan" speed="8.8000" acceleration="0.8000" distance="50.6000" x="61.7595" y="-1.6000" z="0.0000" slope="0.0000" lane="gneE0_0" posOnLane="62.7000"/>
        <vehicle id="test3" maximumBatteryCapacity="50000.0000" actualBatteryCapacity="23115.7113" energyConsumed="24.7979" energyCharged="5.5556" power="218544.7612" overheadWireId="ovrhdWrSgmnt_gneE7_0_1" tractionSubstationId="substation" current="378.2565" circuitVoltage="577.7687" alphaCircuitSolver="1.0000" speed="8.8000" acceleration="0.8000" distance="50.6000" x="-39.8144" y="-104.8000" z="0.0000" slope="0.0000" lane="gneE7_0" posOnLane="9.2400"/>
    </timestep>
    <timestep time="11.50">
        <vehicle id="test1" maximumBatteryCapacity="50000.0000" actualBatteryCapacity="22692.1522" energyConsumed="25.9599" energyCharged="-25.9599" power="nan" overheadWireId="" tractionSubstationId="" current="nan" circuitVoltage="nan" alphaCircuitSolver="nan" speed="9.2000" acceleration="0.8000" distance="55.2000" x="66.2905" y="-1.6000" z="0.0000" slope="0.0000" lane="gneE0_0" posOnLane="67.3000"/>
        <vehicle id="test3" maximumBatteryCapacity="50000.0000" actualBatteryCapacity="23121.2668" energyConsumed="25.9599" energyCharged="5.5556" power="226911.0534" overheadWireId="ovrhdWrSgmnt_gneE7_0_1" tractionSubstationId="substation" current="393.0504" circuitVoltage="577.3078" alphaCircuitSolver="1.0000" speed="9.2000" acceleration="0.8000" distance="55.2000" x="-35.4904" y="-104.8000" z="0.0000" slope="0.0000" lane="gneE7_0" posOnLane="13.8400"/>
    </timestep>
    <timestep time="12.00">
        <vehicle id="test1" maximumBatteryCapacity="50000.0000" actualBatteryCapacity="22665.0267" energyConsumed="27.1255" energyCharged="-27.1255" power="nan" overheadWireId="" tractionSubstationId="" current="nan" circuitVoltage="nan" alphaCircuitSolver="nan" speed="9.6000" acceleration="0.8000" distance="60.0000" x="71.0185" y="-1.6000" z="0.0000" slope="0.0000" lane="gneE0_0" posOnLane="72.1000"/>
        <vehicle id="test3" maximumBatteryCapacity="50000.0000" actualBatteryCapacity="23126.8224" energyConsumed="27.1255" energyCharged="5.5556" power="235303.4890" overheadWireId="ovrhdWrSgmnt_gneE7_0_1" tractionSubstationId="substation" current="407.8798" circuitVoltage="576.8941" alphaCircuitSolver="1.0000" speed="9.6000" acceleration="0.8000" distance="60.0000" x="-30.9784" y="-104.8000" z="0.0000" slope="0.0000" lane="gneE7_0" posOnLane="18.6400"/>
    </timestep>
    <timestep time="12.50">
        <vehicle id="test1" maximumBatteryCapacity="50000.0000" actualBatteryCapacity="22657.4485" energyConsumed="7.5783" energyCharged="-7.5783" power="nan" overheadWireId="" tractionSubstationId="" current="nan" circuitVoltage="nan" alphaCircuitSolver="nan" speed="9.4874" acceleration="-0.2253" distance="64.7437" x="75.6910" y="-1.6000" z="0.0000" slope="0.0000" lane="gneE0_0" posOnLane="76.8437"/>
        <vehicle id="test3" maximumBatteryCapacity="50000.0000" actualBatteryCapacity="23132.3780" energyConsumed="28.2949" energyCharged="5.5556" power="243723.2046" overheadWireId="ovrhdWrSgmnt_gneE7_0_1" tractionSubstationId="substation" current="422.7416" circuitVoltage="576.5299" alphaCircuitSolver="1.0000" speed="10.0000" acceleration="0.8000" distance="65.0000" x="-26.2784" y="-104.8000" z="0.0000" slope="0.0000" lane="gneE7_0" posOnLane="23.6400"/>
    </timestep>
    <timestep time="13.00">
        <vehicle id="test1" maximumBatteryCapacity="50000.0000" actualBatteryCapacity="22663.3560" energyConsumed="-5.9075" energyCharged="5.9075" power="nan" overheadWireId="" tractionSubstationId="" current="nan" circuitVoltage="nan" alphaCircuitSolver="nan" speed="8.9874" acceleration="-1.0000" distance="69.2374" x="80.1173" y="-1.6000" z="0.0000" slope="0.0000" lane="gneE0_0" posOnLane="81.3374"/>
        <vehicle id="test3" maximumBatteryCapacity="50000.0000" actualBatteryCapacity="23137.9335" energyConsumed="29.4682" energyCharged="5.5556" power="252171.3370" overheadWireId="ovrhdWrSgmnt_gneE7_0_1" tractionSubstationId="substation" current="437.6322" circuitVoltage="576.2175" alphaCircuitSolver="1.0000" speed="10.4000" acceleration="0.8000" distance="70.2000" x="-21.3904" y="-104.8000" z="0.0000" slope="0.0000" lane="gneE7_0" posOnLane="28.8400"/>
    </timestep>
    <timestep time="13.50">
        <vehicle id="test1" maximumBatteryCapacity="50000.0000" actualBatteryCapacity="22668.9752" energyConsumed="-5.6192" energyCharged="5.6192" power="nan" overheadWireId="" tractionSubstationId="" current="nan" circuitVoltage="nan" alphaCircuitSolver="nan" speed="8.4874" acceleration="-1.0000" distance="73.4811" x="84.2973" y="-1.6000" z="0.0000" slope="0.0000" lane="gneE0_0" posOnLane="85.5811"/>
        <vehicle id="test3" maximumBatteryCapacity="50000.0000" actualBatteryCapacity="23143.4891" energyConsumed="30.6457" energyCharged="5.5556" power="260649.0229" overheadWireId="ovrhdWrSgmnt_gneE7_0_1" tractionSubstationId="substation" current="452.5477" circuitVoltage="575.9593" alphaCircuitSolver="1.0000" speed="10.8000" acceleration="0.8000" distance="75.6000" x="-16.3144" y="-104.8000" z="0.0000" slope="0.0000" lane="gneE7_0" posOnLane="34.2400"/>
    </timestep>
    <timestep time="14.00">
        <vehicle id="test1" maximumBatteryCapacity="50000.0000" actualBatteryCapacity="22674.3018" energyConsumed="-5.3266" energyCharged="5.3266" power="nan" overheadWireId="" tractionSubstationId="" current="nan" circuitVoltage="nan" alphaCircuitSolver="nan" speed="7.9874" acceleration="-1.0000" distance="77.4747" x="88.2311" y="-1.6000" z="0.0000" slope="0.0000" lane="gneE0_0" posOnLane="89.5747"/>
        <vehicle id="test3" maximumBatteryCapacity="50000.0000" actualBatteryCapacity="23149.0446" energyConsumed="31.8274" energyCharged="5.5556" power="269157.3988" overheadWireId="ovrhdWrSgmnt_gneE7_0_1" tractionSubstationId="substation" current="467.4840" circuitVoltage="575.7575" alphaCircuitSolver="1.0000" speed="11.2000" acceleration="0.8000" distance="81.2000" x="-11.0504" y="-104.8000" z="0.0000" slope="0.0000" lane="gneE7_0" posOnLane="39.8400"/>
    </timestep>
    <timestep time="14.50">
        <vehicle id="test1" maximumBatteryCapacity="50000.0000" actualBatteryCapacity="22679.3319" energyConsumed="-5.0301" energyCharged="5.0301" power="nan" overheadWireId="" tractionSubstationId="" current="nan" circuitVoltage="nan" alphaCircuitSolver="nan" speed="7.4874" acceleration="-1.0000" distance="81.2184" x="91.9186" y="-1.6000" z="0.0000" slope="0.0000" lane="gneE0_0" posOnLane="93.3184"/>
        <vehicle id="test3" maximumBatteryCapacity="50000.0000" actualBatteryCapacity="23154.6002" energyConsumed="33.0136" energyCharged="5.5556" power="277697.6015" overheadWireId="ovrhdWrSgmnt_gneE7_0_1" tractionSubstationId="substation" current="482.4368" circuitVoltage="575.6144" alphaCircuitSolver="1.0000" speed="11.6000" acceleration="0.8000" distance="87.0000" x="-5.5984" y="-104.8000" z="0.0000" slope="0.0000" lane="gneE7_0" posOnLane="45.6400"/>
    </timestep>
    <timestep time="15.00">
        <vehicle id="test1" maximumBatteryCapacity="50000.0000" actualBatteryCapacity="22684.0617" energyConsumed="-4.7298" energyCharged="4.7298" power="nan" overheadWireId="" tractionSubstationId="" current="nan" circuitVoltage="nan" alphaCircuitSolver="nan" speed="6.9874" acceleration="-1.0000" distance="84.7121" x="95.3599" y="-1.6000" z="0.0000" slope="0.0000" lane="gneE0_0" posOnLane="96.8121"/>
        <vehicle id="test3" maximumBatteryCapacity="50000.0000" actualBatteryCapacity="23160.1557" energyConsumed="34.2043" energyCharged="5.5556" power="286270.7677" overheadWireId="ovrhd_inner_:gneJ10_0_0" tractionSubstationId="substation" current="497.4016" circuitVoltage="575.5325" alphaCircuitSolver="1.0000" speed="12.0000" acceleration="0.8000" distance="93.0000" x="-0.6488" y="-107.5239" z="0.0000" slope="0.0000" lane=":gneJ10_0_0" posOnLane="1.6400"/>
    </timestep>
    <timestep time="15.50">