<?xml version="1.0" encoding="UTF-8"?>

<!-- generated on 2022-07-07 10:40:28 by Eclipse SUMO netedit Version v1_13_0+1459-14bdf2d00dd
-->

<data xmlns:xsi="http://www.w3.org/2001/XMLSchema-instance" xsi:noNamespaceSchemaLocation="http://sumo.dlr.de/xsd/datamode_file.xsd">
    <interval id="newDataSet" begin="0.00" end="3600.00">
        <edgeRelation from="gneE12" to="gneE15"/>
    </interval>
</data>
