<?xml version="1.0" encoding="UTF-8"?>

<!-- generated on 07/06/17 15:02:15 by Netedit Version dev-SVN-r22743
<?xml version="1.0" encoding="UTF-8"?>

<configuration xmlns:xsi="http://www.w3.org/2001/XMLSchema-instance" xsi:noNamespaceSchemaLocation="http://sumo.dlr.de/xsd/netconvertConfiguration.xsd">

    <input>
        <sumo-net-file value="C:\Projects\SUMO_Trunk\tests\netedit\bugs\ticket3271\input_net.net.xml"/>
    </input>

    <output>
        <output-file value="C:\Projects\SUMO_Trunk\tests\netedit\bugs\ticket3271\input_net.net.xml"/>
        <plain-output-prefix value="C:\Projects\SUMO_Trunk\tests\netedit\bugs\ticket3271\input_net"/>
    </output>

    <processing>
        <no-internal-links value="false"/>
        <no-turnarounds value="true"/>
        <offset.disable-normalization value="true"/>
        <lefthand value="false"/>
        <junctions.corner-detail value="0"/>
        <rectangular-lane-cut value="false"/>
        <walkingareas value="false"/>
    </processing>

</configuration>
-->

<nodes version="0.27" xmlns:xsi="http://www.w3.org/2001/XMLSchema-instance" xsi:noNamespaceSchemaLocation="http://sumo.dlr.de/xsd/nodes_file.xsd">
    <location netOffset="50.00,50.00" convBoundary="0.00,50.00,100.00,80.00" origBoundary="-50.00,-50.00,50.00,50.00" projParameter="!"/>

    <node id="A" x="80.00" y="80.00" type="priority"/>
    <node id="B" x="20.00" y="80.00" type="priority"/>
    <node id="C" x="0.00" y="50.00" type="priority"/>
    <node id="Center" x="50.00" y="50.00" type="priority"/>
    <node id="D" x="100.00" y="50.00" type="priority"/>
</nodes>
