<?xml version="1.0" encoding="UTF-8"?>

<!-- generated on 2023-07-24 14:20:40 by Eclipse SUMO netedit Version v1_18_0+0474-d01571e5a07
-->

<routes xmlns:xsi="http://www.w3.org/2001/XMLSchema-instance" xsi:noNamespaceSchemaLocation="http://sumo.dlr.de/xsd/routes_file.xsd">
    <!-- Vehicles, persons and containers (sorted by depart) -->
    <flow id="f_0" begin="20.00" fromJunction="Junction0" toJunction="Junction2" end="50.00" number="100"/>
    <flow id="f_1" begin="21.00" fromJunction="Junction0" toJunction="Junction3" end="50.00" number="100"/>
    <flow id="f_2" begin="22.00" fromJunction="Junction2" toJunction="Junction3" end="50.00" number="100"/>
    <flow id="f_3" begin="23.00" fromJunction="Junction3" toJunction="Junction4" end="50.00" number="100"/>
</routes>
