<?xml version="1.0" encoding="UTF-8"?>

<!-- generated on 2022-02-18 16:16:39 by Eclipse SUMO netedit Version v1_12_0+0687-ba7b5f0f28f
-->

<routes xmlns:xsi="http://www.w3.org/2001/XMLSchema-instance" xsi:noNamespaceSchemaLocation="http://sumo.dlr.de/xsd/routes_file.xsd">
    <flow id="f_0" begin="20.00" end="50.00" number="100" fromJunction="Junction0" toJunction="Junction2"/>
    <flow id="f_1" begin="21.00" end="50.00" number="100" fromJunction="Junction0" toJunction="Junction3"/>
    <flow id="f_2" begin="22.00" end="50.00" number="100" fromJunction="Junction2" toJunction="Junction3"/>
    <flow id="f_3" begin="23.00" end="50.00" number="100" fromJunction="Junction3" toJunction="Junction4"/>
</routes>
