<?xml version="1.0" encoding="UTF-8"?>

<!-- generated on 2026-04-23 08:14:43.976962 by Eclipse SUMO gtfs2pt.py v1_26_0+1325-c72caebd50f
<configuration>
    <merged-csv value="data.csv"/>
    <vtype-output value="vehtypes.xml"/>
    <human-readable-time value="True"/>
    <network value="net.net.xml"/>
    <stops value="input_stops.xml"/>
    <radius value="200.0"/>
</configuration>
-->

<routes xmlns:xsi="http://www.w3.org/2001/XMLSchema-instance" xsi:noNamespaceSchemaLocation="http://sumo.dlr.de/xsd/routes_file.xsd">
    <route id="255743249" edges="52782252#2 19744868#0 19744868#1 4526351#1 1154993712 1243591605#0 1243591605#1 321030049#1 321030049#2 321030049#3 463435053#1">
        <stop busStop="255743249.11" duration="00:00:10" until="00:00:00"/> <!-- S Südkreuz Bhf (Berlin) -->
        <stop busStop="255743249.12" duration="00:00:10" until="00:02:24"/> <!-- S+U Tempelhof (Berlin) -->
    </route>
    <vehicle id="255743249.0" route="255743249" type="light_rail" depart="07:05:44" line="S42">
        <param key="gtfs.route_name" value="S42"/>
        <param key="gtfs.trip_headsign" value="Ringbahn S 42"/>
    </vehicle>
</routes>
