<?xml version="1.0" encoding="UTF-8"?>

<!-- generated on 2022-03-04 10:34:08 by Eclipse SUMO netedit Version v1_12_0+1137-e9106068858
-->

<additional xmlns:xsi="http://www.w3.org/2001/XMLSchema-instance" xsi:noNamespaceSchemaLocation="http://sumo.dlr.de/xsd/additional_file.xsd">
    <!-- TAZs -->
    <taz id="TAZ_0" shape="12.00,8.00 12.00,18.00 2.00,18.00 2.00,8.00 12.00,8.00" center="20.00,30.00" fill="1" name="name1" color="red">
        <param key="keyA1" value="valueA1"/>
        <param key="keyA2" value="valueA2"/>
        <param key="keyA3" value="valueA3"/>
    </taz>
    <taz id="TAZ_1" shape="32.00,8.00 32.00,18.00 22.00,18.00 22.00,8.00 32.00,8.00" center="40.00,50.00" fill="1" name="name2" color="red">
        <param key="keyB1" value="valueB1"/>
        <param key="keyB2" value="valueB2"/>
        <param key="keyB3" value="valueB3"/>
    </taz>
</additional>
