<?xml version="1.0" encoding="UTF-8"?>

<!-- generated on 2026-05-20 11:43:24.110740 by Eclipse SUMO addStops2Routes.py v1_26_0+1691-bc1c46fcc6b
<configuration>
    <net-file value="input_net.net.xml"/>
    <route-files value="input_routes.rou.xml"/>
    <output-file value="out.rou.xml"/>
    <typesfile value="input_routes.rou.xml"/>
    <duration value="1800"/>
    <until value="12:0:0"/>
    <parking value="True"/>
    <edges value="SC"/>
</configuration>
-->

<routes xmlns:xsi="http://www.w3.org/2001/XMLSchema-instance" xsi:noNamespaceSchemaLocation="http://sumo.dlr.de/xsd/routes_file.xsd">
    <vType id="type1" vClass="bicycle"/>
    <vehicle id="0_parkingA" type="type1" depart="0" color="1,0,0">
        <route edges="SC CN"/>
        <stop duration="1800" lane="SC_2" parking="true" until="12:0:0"/>
    </vehicle>
</routes>
