<?xml version="1.0"?>

<!-- generated on Mon Oct 11 17:31:14 2010 by SUMO od2trips Version dev-SVN-r9246
<?xml version="1.0" encoding="iso-8859-1"?>

<configuration>

    <input>
        <net-file value="input_net.net.xml"/>
        <od-files value="input_od_o.fma"/>
    </input>

    <output>
        <output-file value="trips.trips.xml"/>
    </output>

    <defaults>
        <arrivalpos value="0"/>
    </defaults>

</configuration>
-->

<tripdefs>
    <tripdef id="0" depart="35347.00" from="a1" to="b2" fromtaz="1" totaz="2" departlane="free" departspeed="max" arrivalpos="0"/>
</tripdefs>
