<?xml version="1.0" encoding="UTF-8"?>

<!-- generated on 19.10.2017 15:20:30 by Netedit Version dev-SVN-r22737
<?xml version="1.0" encoding="UTF-8"?>

<configuration xmlns:xsi="http://www.w3.org/2001/XMLSchema-instance" xsi:noNamespaceSchemaLocation="http://sumo.dlr.de/xsd/netconvertConfiguration.xsd">

    <input>
        <sumo-net-file value="C:/Users/alva_pa/.texttest/tmp/netedit.gui.19Oct133808.4976/netedit.gui/bugs/crossings/ticket3292\input_net.net.xml"/>
    </input>

    <output>
        <additionals-output value="C:/Users/alva_pa/.texttest/tmp/netedit.gui.19Oct133808.4976/netedit.gui/bugs/crossings/ticket3292\additionals.xml"/>
        <shapes-output value="C:/Users/alva_pa/.texttest/tmp/netedit.gui.19Oct133808.4976/netedit.gui/bugs/crossings/ticket3292\shapes.xml"/>
        <output-file value="C:/Users/alva_pa/.texttest/tmp/netedit.gui.19Oct133808.4976/netedit.gui/bugs/crossings/ticket3292\net.net.xml"/>
    </output>

    <processing>
        <no-internal-links value="false"/>
        <no-turnarounds value="true"/>
        <offset.disable-normalization value="true"/>
        <lefthand value="false"/>
        <junctions.corner-detail value="0"/>
        <rectangular-lane-cut value="false"/>
        <walkingareas value="false"/>
    </processing>

    <visualisation>
        <window-size value="700,500"/>
        <window-pos value="50,50"/>
        <gui-testing value="true"/>
        <gui-testing-debug value="true"/>
    </visualisation>

    <report>
        <no-warnings value="true"/>
        <error-log value="C:/Users/alva_pa/.texttest/tmp/netedit.gui.19Oct133808.4976/netedit.gui/bugs/crossings/ticket3292\log.txt"/>
    </report>

</configuration>
-->

<net version="0.27" xmlns:xsi="http://www.w3.org/2001/XMLSchema-instance" xsi:noNamespaceSchemaLocation="http://sumo.dlr.de/xsd/net_file.xsd">

    <location netOffset="50.00,50.00" convBoundary="0.00,0.00,100.00,100.00" origBoundary="-50.00,-50.00,50.00,50.00" projParameter="!"/>

    <edge id=":C_w0" function="walkingarea">
        <lane id=":C_w0_0" index="0" allow="pedestrian" speed="1.00" length="16.50" width="3.20" shape="0.00,43.35 0.00,40.15 0.00,59.85 0.00,56.65"/>
    </edge>
    <edge id=":Center_0" function="internal">
        <lane id=":Center_0_0" index="0" disallow="pedestrian" speed="13.90" length="7.26" shape="45.05,61.35 44.65,58.55 43.45,56.55 41.65,55.47"/>
    </edge>
    <edge id=":Center_1" function="internal">
        <lane id=":Center_1_0" index="0" disallow="pedestrian" speed="13.90" length="22.70" shape="45.05,61.35 45.05,38.65"/>
        <lane id=":Center_1_1" index="1" disallow="pedestrian" speed="13.90" length="22.70" shape="48.35,61.35 48.35,38.65"/>
    </edge>
    <edge id=":Center_3" function="internal">
        <lane id=":Center_3_0" index="0" disallow="pedestrian" speed="13.90" length="5.72" shape="48.35,61.35 48.96,55.66"/>
    </edge>
    <edge id=":Center_16" function="internal">
        <lane id=":Center_16_0" index="0" speed="13.90" length="3.06" shape="41.65,55.47 41.45,55.35 38.65,54.95"/>
    </edge>
    <edge id=":Center_17" function="internal">
        <lane id=":Center_17_0" index="0" speed="13.90" length="12.66" shape="48.96,55.66 50.78,51.60 53.81,49.16 58.05,48.35"/>
    </edge>
    <edge id=":Center_4" function="internal">
        <lane id=":Center_4_0" index="0" disallow="pedestrian" speed="13.90" length="7.85" shape="58.05,54.95 56.69,55.35 55.72,56.55 55.14,58.55 54.95,61.35"/>
    </edge>
    <edge id=":Center_5" function="internal">
        <lane id=":Center_5_0" index="0" disallow="pedestrian" speed="13.90" length="19.40" shape="58.05,54.95 38.65,54.95"/>
        <lane id=":Center_5_1" index="1" disallow="pedestrian" speed="13.90" length="19.40" shape="58.05,51.65 38.65,51.65"/>
    </edge>
    <edge id=":Center_7" function="internal">
        <lane id=":Center_7_0" index="0" disallow="pedestrian" speed="13.90" length="18.38" shape="58.05,51.65 53.81,50.84 50.77,48.40 48.96,44.34 48.35,38.65"/>
    </edge>
    <edge id=":Center_8" function="internal">
        <lane id=":Center_8_0" index="0" disallow="pedestrian" speed="13.90" length="7.85" shape="54.95,38.65 55.14,41.45 55.73,43.45 56.69,44.65 58.05,45.05"/>
    </edge>
    <edge id=":Center_9" function="internal">
        <lane id=":Center_9_0" index="0" disallow="pedestrian" speed="13.90" length="22.70" shape="54.95,38.65 54.95,61.35"/>
        <lane id=":Center_9_1" index="1" disallow="pedestrian" speed="13.90" length="22.70" shape="51.65,38.65 51.65,61.35"/>
    </edge>
    <edge id=":Center_11" function="internal">
        <lane id=":Center_11_0" index="0" disallow="pedestrian" speed="13.90" length="20.97" shape="51.65,38.65 50.84,44.34 48.40,48.40 44.34,50.84 38.65,51.65"/>
    </edge>
    <edge id=":Center_12" function="internal">
        <lane id=":Center_12_0" index="0" disallow="pedestrian" speed="13.90" length="10.32" shape="38.65,45.05 41.45,44.65 43.45,43.45 44.65,41.45 45.05,38.65"/>
    </edge>
    <edge id=":Center_13" function="internal">
        <lane id=":Center_13_0" index="0" disallow="pedestrian" speed="13.90" length="19.40" shape="38.65,45.05 58.05,45.05"/>
        <lane id=":Center_13_1" index="1" disallow="pedestrian" speed="13.90" length="19.40" shape="38.65,48.35 58.05,48.35"/>
    </edge>
    <edge id=":Center_15" function="internal">
        <lane id=":Center_15_0" index="0" disallow="pedestrian" speed="13.90" length="20.97" shape="38.65,48.35 44.34,49.16 48.40,51.60 50.84,55.66 51.65,61.35"/>
    </edge>
    <edge id=":Center_c1" function="crossing" crossingEdges="3 7">
        <lane id=":Center_c1_0" index="0" allow="pedestrian" speed="1.00" length="13.10" width="3.00" shape="40.15,56.55 40.15,43.45"/>
    </edge>
    <edge id=":Center_w0" function="walkingarea">
        <lane id=":Center_w0_0" index="0" allow="pedestrian" speed="1.00" length="3.90" width="3.20" shape="41.65,56.55 38.65,56.65 38.65,59.85 40.15,61.35 43.35,61.35"/>
    </edge>
    <edge id=":Center_w1" function="walkingarea">
        <lane id=":Center_w1_0" index="0" allow="pedestrian" speed="1.00" length="3.90" width="3.20" shape="43.35,38.65 40.15,38.65 38.65,40.15 38.65,43.35 41.65,43.45"/>
    </edge>

    <edge id="1" from="Center" to="A" priority="-1">
        <lane id="1_0" index="0" allow="pedestrian" speed="13.90" length="38.65" shape="41.75,38.65 41.75,0.00"/>
        <lane id="1_1" index="1" disallow="pedestrian" speed="13.90" length="38.65" shape="45.05,38.65 45.05,0.00"/>
        <lane id="1_2" index="2" disallow="pedestrian" speed="13.90" length="38.65" shape="48.35,38.65 48.35,0.00"/>
    </edge>
    <edge id="2" from="Center" to="B" priority="-1">
        <lane id="2_0" index="0" disallow="pedestrian" speed="13.90" length="38.65" shape="54.95,61.35 54.95,100.00"/>
        <lane id="2_1" index="1" disallow="pedestrian" speed="13.90" length="38.65" shape="51.65,61.35 51.65,100.00"/>
    </edge>
    <edge id="3" from="Center" to="C" priority="-1">
        <lane id="3_0" index="0" allow="pedestrian" speed="13.90" length="38.65" shape="38.65,58.25 0.00,58.25"/>
        <lane id="3_1" index="1" disallow="pedestrian" speed="13.90" length="38.65" shape="38.65,54.95 0.00,54.95"/>
        <lane id="3_2" index="2" disallow="pedestrian" speed="13.90" length="38.65" shape="38.65,51.65 0.00,51.65"/>
    </edge>
    <edge id="4" from="Center" to="D" priority="-1">
        <lane id="4_0" index="0" disallow="pedestrian" speed="13.90" length="41.95" shape="58.05,45.05 100.00,45.05"/>
        <lane id="4_1" index="1" disallow="pedestrian" speed="13.90" length="41.95" shape="58.05,48.35 100.00,48.35"/>
    </edge>
    <edge id="5" from="A" to="Center" priority="-1">
        <lane id="5_0" index="0" disallow="pedestrian" speed="13.90" length="38.65" shape="54.95,0.00 54.95,38.65"/>
        <lane id="5_1" index="1" disallow="pedestrian" speed="13.90" length="38.65" shape="51.65,0.00 51.65,38.65"/>
    </edge>
    <edge id="6" from="B" to="Center" priority="-1">
        <lane id="6_0" index="0" allow="pedestrian" speed="13.90" length="38.65" shape="41.75,100.00 41.75,61.35"/>
        <lane id="6_1" index="1" disallow="pedestrian" speed="13.90" length="38.65" shape="45.05,100.00 45.05,61.35"/>
        <lane id="6_2" index="2" disallow="pedestrian" speed="13.90" length="38.65" shape="48.35,100.00 48.35,61.35"/>
    </edge>
    <edge id="7" from="C" to="Center" priority="-1">
        <lane id="7_0" index="0" allow="pedestrian" speed="13.90" length="38.65" shape="0.00,41.75 38.65,41.75"/>
        <lane id="7_1" index="1" disallow="pedestrian" speed="13.90" length="38.65" shape="0.00,45.05 38.65,45.05"/>
        <lane id="7_2" index="2" disallow="pedestrian" speed="13.90" length="38.65" shape="0.00,48.35 38.65,48.35"/>
    </edge>
    <edge id="8" from="D" to="Center" priority="-1">
        <lane id="8_0" index="0" disallow="pedestrian" speed="13.90" length="41.95" shape="100.00,54.95 58.05,54.95"/>
        <lane id="8_1" index="1" disallow="pedestrian" speed="13.90" length="41.95" shape="100.00,51.65 58.05,51.65"/>
    </edge>

    <junction id="A" type="dead_end" x="50.00" y="0.00" incLanes="1_0 1_1 1_2" intLanes="" shape="50.05,0.00 40.15,0.00 49.95,0.00"/>
    <junction id="B" type="dead_end" x="50.00" y="100.00" incLanes="2_0 2_1" intLanes="" shape="49.95,100.00 56.55,100.00 50.05,100.00"/>
    <junction id="C" type="dead_end" x="0.00" y="50.00" incLanes="3_0 3_1 3_2" intLanes="" shape="0.00,49.95 0.00,59.85 0.00,50.05"/>
    <junction id="Center" type="priority" x="50.00" y="50.00" incLanes="6_0 6_1 6_2 8_0 8_1 5_0 5_1 7_0 7_1 7_2 :Center_w0_0" intLanes=":Center_16_0 :Center_1_0 :Center_1_1 :Center_17_0 :Center_4_0 :Center_5_0 :Center_5_1 :Center_7_0 :Center_8_0 :Center_9_0 :Center_9_1 :Center_11_0 :Center_12_0 :Center_13_0 :Center_13_1 :Center_15_0 :Center_c1_0" shape="40.15,61.35 56.55,61.35 58.05,56.55 58.05,43.45 56.55,38.65 40.15,38.65 38.65,40.15 38.65,59.85">
        <request index="0" response="10000000000000000" foes="10000100001100000" cont="1"/>
        <request index="1" response="01111000000000000" foes="01111100011100000" cont="0"/>
        <request index="2" response="01111000000000000" foes="01111100011100000" cont="0"/>
        <request index="3" response="01110000000000000" foes="01110011111100000" cont="1"/>
        <request index="4" response="01000000000000000" foes="01000011000000000" cont="0"/>
        <request index="5" response="01000000000001111" foes="11000111000001111" cont="0"/>
        <request index="6" response="01000000000001111" foes="11000111000001111" cont="0"/>
        <request index="7" response="00111000000001110" foes="00111111000001110" cont="0"/>
        <request index="8" response="00110000000001000" foes="00110000000001000" cont="0"/>
        <request index="9" response="01110000011111000" foes="01110000011111000" cont="0"/>
        <request index="10" response="01110000011111000" foes="01110000011111000" cont="0"/>
        <request index="11" response="11110000011100111" foes="11110000011100111" cont="0"/>
        <request index="12" response="00000000000000000" foes="10000000010000110" cont="0"/>
        <request index="13" response="00000000000000000" foes="10000111110001110" cont="0"/>
        <request index="14" response="00000000000000000" foes="10000111110001110" cont="0"/>
        <request index="15" response="00000000000000000" foes="10000111001111110" cont="0"/>
        <request index="16" response="01111000001100000" foes="01111100001100001" cont="0"/>
    </junction>
    <junction id="D" type="dead_end" x="100.00" y="50.00" incLanes="4_0 4_1" intLanes="" shape="100.00,50.05 100.00,43.45 100.00,49.95"/>

    <junction id=":Center_16_0" type="internal" x="41.65" y="55.47" incLanes=":Center_0_0" intLanes=":Center_5_0 :Center_5_1 :Center_11_0 :Center_c1_0"/>
    <junction id=":Center_17_0" type="internal" x="48.96" y="55.66" incLanes=":Center_3_0 7_1 7_2" intLanes=":Center_5_0 :Center_5_1 :Center_7_0 :Center_8_0 :Center_9_0 :Center_9_1 :Center_13_0 :Center_13_1 :Center_15_0"/>

    <connection from="5" to="4" fromLane="0" toLane="0" via=":Center_8_0" dir="r" state="m"/>
    <connection from="5" to="2" fromLane="0" toLane="0" via=":Center_9_0" dir="s" state="m"/>
    <connection from="5" to="2" fromLane="1" toLane="1" via=":Center_9_1" dir="s" state="m"/>
    <connection from="5" to="3" fromLane="1" toLane="2" via=":Center_11_0" dir="l" state="m"/>
    <connection from="6" to="3" fromLane="1" toLane="1" via=":Center_0_0" dir="r" state="m"/>
    <connection from="6" to="1" fromLane="1" toLane="1" via=":Center_1_0" dir="s" state="m"/>
    <connection from="6" to="1" fromLane="2" toLane="2" via=":Center_1_1" dir="s" state="m"/>
    <connection from="6" to="4" fromLane="2" toLane="1" via=":Center_3_0" dir="l" state="m"/>
    <connection from="7" to="1" fromLane="1" toLane="1" via=":Center_12_0" dir="r" state="M"/>
    <connection from="7" to="4" fromLane="1" toLane="0" via=":Center_13_0" dir="s" state="M"/>
    <connection from="7" to="4" fromLane="2" toLane="1" via=":Center_13_1" dir="s" state="M"/>
    <connection from="7" to="2" fromLane="2" toLane="1" via=":Center_15_0" dir="l" state="M"/>
    <connection from="8" to="2" fromLane="0" toLane="0" via=":Center_4_0" dir="r" state="m"/>
    <connection from="8" to="3" fromLane="0" toLane="1" via=":Center_5_0" dir="s" state="m"/>
    <connection from="8" to="3" fromLane="1" toLane="2" via=":Center_5_1" dir="s" state="m"/>
    <connection from="8" to="1" fromLane="1" toLane="2" via=":Center_7_0" dir="l" state="m"/>

    <connection from=":Center_0" to="3" fromLane="0" toLane="1" via=":Center_16_0" dir="r" state="m"/>
    <connection from=":Center_16" to="3" fromLane="0" toLane="1" dir="r" state="M"/>
    <connection from=":Center_1" to="1" fromLane="0" toLane="1" dir="s" state="M"/>
    <connection from=":Center_1" to="1" fromLane="1" toLane="2" dir="s" state="M"/>
    <connection from=":Center_3" to="4" fromLane="0" toLane="1" via=":Center_17_0" dir="l" state="m"/>
    <connection from=":Center_17" to="4" fromLane="0" toLane="1" dir="l" state="M"/>
    <connection from=":Center_4" to="2" fromLane="0" toLane="0" dir="r" state="M"/>
    <connection from=":Center_5" to="3" fromLane="0" toLane="1" dir="s" state="M"/>
    <connection from=":Center_5" to="3" fromLane="1" toLane="2" dir="s" state="M"/>
    <connection from=":Center_7" to="1" fromLane="0" toLane="2" dir="l" state="M"/>
    <connection from=":Center_8" to="4" fromLane="0" toLane="0" dir="r" state="M"/>
    <connection from=":Center_9" to="2" fromLane="0" toLane="0" dir="s" state="M"/>
    <connection from=":Center_9" to="2" fromLane="1" toLane="1" dir="s" state="M"/>
    <connection from=":Center_11" to="3" fromLane="0" toLane="2" dir="l" state="M"/>
    <connection from=":Center_12" to="1" fromLane="0" toLane="1" dir="r" state="M"/>
    <connection from=":Center_13" to="4" fromLane="0" toLane="0" dir="s" state="M"/>
    <connection from=":Center_13" to="4" fromLane="1" toLane="1" dir="s" state="M"/>
    <connection from=":Center_15" to="2" fromLane="0" toLane="1" dir="l" state="M"/>

    <connection from=":C_w0" to="7" fromLane="0" toLane="0" dir="s" state="M"/>
    <connection from="3" to=":C_w0" fromLane="0" toLane="0" dir="s" state="M"/>
    <connection from=":Center_c1" to=":Center_w1" fromLane="0" toLane="0" dir="s" state="M"/>
    <connection from=":Center_w0" to=":Center_c1" fromLane="0" toLane="0" dir="s" state="m"/>
    <connection from=":Center_w0" to="3" fromLane="0" toLane="0" dir="s" state="M"/>
    <connection from="6" to=":Center_w0" fromLane="0" toLane="0" dir="s" state="M"/>
    <connection from=":Center_w1" to="1" fromLane="0" toLane="0" dir="s" state="M"/>
    <connection from="7" to=":Center_w1" fromLane="0" toLane="0" dir="s" state="M"/>
</net>
