<?xml version="1.0" encoding="UTF-8"?>

<!-- generated on 2023-02-07 13:00:10 by Eclipse SUMO netedit Version v1_16_0+0024-1134bf4b789
-->

<additional xmlns:xsi="http://www.w3.org/2001/XMLSchema-instance" xsi:noNamespaceSchemaLocation="http://sumo.dlr.de/xsd/additional_file.xsd">
    <!-- StoppingPlaces -->
    <parkingArea id="pa_0" lane="gneE0_1" startPos="21.00" endPos="31.00"/>
    <parkingArea id="pa_1" lane="gneE0_1" startPos="23.00" endPos="33.00" angle="-4.00"/>
    <parkingArea id="pa_2" lane="gneE0_1" startPos="25.00" endPos="35.00" angle="500.00"/>
    <parkingArea id="pa_3" lane="gneE0_1" startPos="27.00" endPos="37.00" angle="120.00"/>
</additional>
