<?xml version="1.0" encoding="UTF-8"?>

<!-- generated on Mon Mar  3 10:28:03 2014 by SUMO sumo Version dev-SVN-r15793
<?xml version="1.0" encoding="UTF-8"?>

<configuration xmlns:xsi="http://www.w3.org/2001/XMLSchema-instance" xsi:noNamespaceSchemaLocation="http://sumo-sim.org/xsd/sumoConfiguration.xsd">

    <input>
        <net-file value="net.net.xml"/>
        <additional-files value="input_additional.add.xml,input_routes.rou.xml,input_additional2.add.xml"/>
    </input>

    <time>
        <begin value="0"/>
        <end value="130"/>
    </time>

    <report>
        <xml-validation value="never"/>
        <no-duration-log value="true"/>
        <no-step-log value="true"/>
    </report>

</configuration>
-->

<vehicle-type-probes>
    <timestep time="0.00" id="test1" vType="t1">
        <vehicle id="0" lane="4/1to3/1_0" pos="100.00" x="1495.25" y="401.65" speed="10.00"/>
    </timestep>
    <timestep time="10.00" id="test1" vType="t1">
        <vehicle id="0" lane="4/1to3/1_0" pos="200.00" x="1395.25" y="401.65" speed="10.00"/>
    </timestep>
    <timestep time="20.00" id="test1" vType="t1">
        <vehicle id="0" lane="4/1to3/1_0" pos="300.00" x="1295.25" y="401.65" speed="10.00"/>
    </timestep>
    <timestep time="30.00" id="test1" vType="t1">
        <vehicle id="0" lane="4/1to3/1_0" pos="400.00" x="1204.75" y="401.65" speed="10.00"/>
    </timestep>
    <timestep time="40.00" id="test1" vType="t1">
        <vehicle id="0" lane="3/1to2/1_0" pos="100.00" x="1095.25" y="401.65" speed="10.00"/>
    </timestep>
    <timestep time="50.00" id="test1" vType="t1">
        <vehicle id="0" lane="3/1to2/1_0" pos="200.00" x="995.25" y="401.65" speed="10.00"/>
    </timestep>
    <timestep time="60.00" id="test1" vType="t1">
        <vehicle id="0" lane="3/1to2/1_0" pos="300.00" x="895.25" y="401.65" speed="10.00"/>
    </timestep>
    <timestep time="70.00" id="test1" vType="t1">
        <vehicle id="0" lane="3/1to2/1_0" pos="400.00" x="804.75" y="401.65" speed="10.00"/>
    </timestep>
    <timestep time="80.00" id="test1" vType="t1">
        <vehicle id="0" lane="2/1to1/1_0" pos="100.00" x="695.25" y="401.65" speed="10.00"/>
    </timestep>
    <timestep time="90.00" id="test1" vType="t1">
        <vehicle id="0" lane="2/1to1/1_0" pos="200.00" x="595.25" y="401.65" speed="10.00"/>
    </timestep>
    <timestep time="100.00" id="test1" vType="t1">
        <vehicle id="0" lane="2/1to1/1_0" pos="300.00" x="495.25" y="401.65" speed="10.00"/>
    </timestep>
    <timestep time="110.00" id="test1" vType="t1">
        <vehicle id="0" lane="2/1to1/1_0" pos="400.00" x="404.75" y="401.65" speed="10.00"/>
    </timestep>
    <timestep time="120.00" id="test1" vType="t1">
        <vehicle id="0" lane="1/1to0/1_0" pos="100.00" x="295.25" y="401.65" speed="10.00"/>
    </timestep>
</vehicle-type-probes>
