<?xml version="1.0" encoding="UTF-8"?>

<!-- generated on 2024-10-16 14:27:09 by Eclipse SUMO sumo Version v1_20_0+0696-f5985653822
This data file and the accompanying materials
are made available under the terms of the Eclipse Public License v2.0
which accompanies this distribution, and is available at
http://www.eclipse.org/legal/epl-v20.html
This file may also be made available under the following Secondary
Licenses when the conditions for such availability set forth in the Eclipse
Public License 2.0 are satisfied: GNU General Public License, version 2
or later which is available at
https://www.gnu.org/licenses/old-licenses/gpl-2.0-standalone.html
SPDX-License-Identifier: EPL-2.0 OR GPL-2.0-or-later
<configuration xmlns:xsi="http://www.w3.org/2001/XMLSchema-instance" xsi:noNamespaceSchemaLocation="http://sumo.dlr.de/xsd/sumoConfiguration.xsd">

    <input>
        <net-file value="net.net.xml"/>
        <route-files value="input_routes.rou.xml"/>
    </input>

    <output>
        <write-license value="true"/>
        <tripinfo-output value="tripinfos.xml"/>
        <railsignal-block-output value="railsignal_blocks.xml"/>
        <railsignal-vehicle-output value="railsignal_vehicles.xml"/>
    </output>

    <processing>
        <time-to-teleport.railsignal-deadlock value="200"/>
        <default.speeddev value="0"/>
    </processing>

    <report>
        <xml-validation value="never"/>
        <duration-log.disable value="true"/>
        <no-step-log value="true"/>
    </report>

</configuration>
-->

<railsignal-vehicle-output>
    <railSignal id="B">
        <link linkIndex="0" from="-b_0" to=":B_0_0">
            <driveWay id="B.1">
                <entry id="t0" time="36.00" reason="1"/>
                <exit id="t0" time="80.00" reason="5"/>
            </driveWay>
        </link>
        <link linkIndex="1" from="a_0" to=":B_1_0">
            <driveWay id="B.0"/>
        </link>
    </railSignal>
    <railSignal id="C">
        <link linkIndex="0" from="-c_0" to=":C_0_0">
            <driveWay id="C.0"/>
        </link>
        <link linkIndex="1" from="b_0" to=":C_1_0"/>
    </railSignal>
    <departJunction id="C">
        <driveWay id="C.d0"/>
    </departJunction>
    <departJunction id="A">
        <driveWay id="A.d0"/>
    </departJunction>
    <departJunction id="B">
        <driveWay id="B.d0">
            <entry id="t0" time="0.00" reason="0"/>
            <exit id="t0" time="18.00" reason="5"/>
        </driveWay>
    </departJunction>
</railsignal-vehicle-output>
