<?xml version="1.0" encoding="UTF-8"?>

<!-- generated on 2024-03-21 00:13:39 by Eclipse SUMO sumo Version v1_19_0+1438-7edeab8cd07
This data file and the accompanying materials
are made available under the terms of the Eclipse Public License v2.0
which accompanies this distribution, and is available at
http://www.eclipse.org/legal/epl-v20.html
This file may also be made available under the following Secondary
Licenses when the conditions for such availability set forth in the Eclipse
Public License 2.0 are satisfied: GNU General Public License, version 2
or later which is available at
https://www.gnu.org/licenses/old-licenses/gpl-2.0-standalone.html
SPDX-License-Identifier: EPL-2.0 OR GPL-2.0-or-later
<configuration xmlns:xsi="http://www.w3.org/2001/XMLSchema-instance" xsi:noNamespaceSchemaLocation="http://sumo.dlr.de/xsd/sumoConfiguration.xsd">

    <input>
        <net-file value="net.net.xml"/>
        <route-files value="input_routes.rou.xml"/>
    </input>

    <output>
        <write-license value="true"/>
        <tripinfo-output value="tripinfos.xml"/>
        <railsignal-block-output value="railsignal_blocks.xml"/>
    </output>

    <processing>
        <default.speeddev value="0"/>
    </processing>

    <report>
        <xml-validation value="never"/>
        <duration-log.disable value="true"/>
        <no-step-log value="true"/>
    </report>

</configuration>
-->

<railsignal-block-output>
    <railSignal id="B">
        <link linkIndex="0" from="-b_0" to=":B_0_0">
            <driveWay edges="-a">
                <forward lanes=":B_0_0 -a_0"/>
                <bidi lanes=":B_1_0 a_0"/>
                <flank lanes=""/>
                <protectingSwitches links=""/>
                <conflictLinks signals=""/>
            </driveWay>
        </link>
        <link linkIndex="1" from="a_0" to=":B_1_0"/>
    </railSignal>
    <railSignal id="C">
        <link linkIndex="0" from="-c_0" to=":C_0_0"/>
        <link linkIndex="1" from="b_0" to=":C_1_0"/>
    </railSignal>
</railsignal-block-output>
