<?xml version="1.0" encoding="UTF-8"?>

<!-- generated on 2026-04-22 16:14:18.235643 by Eclipse SUMO gtfs2pt.py v1_26_0+1322-eb915880aa3
<configuration>
    <gtfs value="gtfs.zip"/>
    <date value="20230701"/>
    <modes value="trolleybus"/>
    <vtype-output value="pt_vtypes.xml"/>
    <network value="net.net.xml"/>
    <route-output value="gtfs_pt_vehicles.rou.xml"/>
    <additional-output value="gtfs_pt_stops.add.xml"/>
    <use-gtfs-stopids value="True"/>
    <warning-output value="gtfs_warnings.txt"/>
</configuration>
-->

<additional xmlns:xsi="http://www.w3.org/2001/XMLSchema-instance" xsi:noNamespaceSchemaLocation="http://sumo.dlr.de/xsd/additional_file.xsd">
    <vType id="trolleybus" vClass="bus"/>
</additional>
