<routes xmlns:xsi="http://www.w3.org/2001/XMLSchema-instance" xsi:noNamespaceSchemaLocation="http://sumo-sim.org/xsd/routes_file.xsd">
   <vType id="DEFAULT_VEHTYPE" sigma="0"/>
    <vehicle id="swap_to_left" departPos="980" depart="0" departSpeed="40" departLane="1" color="0,0,1">
        <route edges="beg e2 end1"/>
    </vehicle>
</routes>
