<?xml version="1.0" encoding="UTF-8"?>

<!-- generated on Mon Feb 17 15:30:54 2020 by Eclipse SUMO netconvert Version v1_5_0+0130-ceb0a01
This data file and the accompanying materials
are made available under the terms of the Eclipse Public License v2.0
which accompanies this distribution, and is available at
http://www.eclipse.org/legal/epl-v20.html
SPDX-License-Identifier: EPL-2.0
<configuration xmlns:xsi="http://www.w3.org/2001/XMLSchema-instance" xsi:noNamespaceSchemaLocation="http://sumo.dlr.de/xsd/netconvertConfiguration.xsd">

    <input>
        <visum-file value="visum.net"/>
    </input>

    <output>
        <write-license value="true"/>
        <output-file value="net.net.xml"/>
        <polygon-output value="additional.xml"/>
    </output>

    <processing>
        <geometry.junction-mismatch-threshold value="100"/>
    </processing>

    <junctions>
        <no-internal-links value="true"/>
    </junctions>

    <report>
        <verbose value="true"/>
        <xml-validation value="never"/>
        <aggregate-warnings value="5"/>
    </report>

</configuration>
-->

<net version="1.6" junctionCornerDetail="5" limitTurnSpeed="5.50" xmlns:xsi="http://www.w3.org/2001/XMLSchema-instance" xsi:noNamespaceSchemaLocation="http://sumo.dlr.de/xsd/net_file.xsd">

    <location netOffset="-4436760.00,-5472772.50" convBoundary="0.00,0.00,4020.00,3207.50" origBoundary="4436760.00,5472772.50,4440780.00,5475980.00" projParameter="!"/>

    <type id="0" priority="1000" numLanes="1" speed="1000.00" disallow="all" oneway="0"/>
    <type id="1" priority="999" numLanes="25" speed="36.11" allow="passenger truck" oneway="0"/>
    <type id="10" priority="999" numLanes="30" speed="27.78" allow="passenger truck" oneway="0"/>
    <type id="11" priority="999" numLanes="28" speed="25.00" allow="passenger truck" oneway="0"/>
    <type id="12" priority="999" numLanes="25" speed="22.22" allow="passenger truck" oneway="0"/>
    <type id="13" priority="999" numLanes="48" speed="36.11" allow="passenger truck" oneway="0"/>
    <type id="14" priority="999" numLanes="44" speed="33.33" allow="passenger truck" oneway="0"/>
    <type id="15" priority="999" numLanes="41" speed="30.56" allow="passenger truck" oneway="0"/>
    <type id="16" priority="999" numLanes="38" speed="27.78" allow="passenger truck" oneway="0"/>
    <type id="17" priority="998" numLanes="17" speed="30.56" allow="passenger truck" oneway="0"/>
    <type id="18" priority="998" numLanes="16" speed="27.78" allow="passenger truck" oneway="0"/>
    <type id="19" priority="998" numLanes="15" speed="22.22" allow="passenger truck" oneway="0"/>
    <type id="2" priority="999" numLanes="24" speed="33.33" allow="passenger truck" oneway="0"/>
    <type id="20" priority="998" numLanes="14" speed="19.44" allow="passenger truck" oneway="0"/>
    <type id="21" priority="995" numLanes="9" speed="19.44" allow="passenger truck" oneway="0"/>
    <type id="22" priority="995" numLanes="8" speed="16.67" allow="passenger truck" oneway="0"/>
    <type id="23" priority="995" numLanes="7" speed="13.89" allow="passenger truck" oneway="0"/>
    <type id="24" priority="994" numLanes="7" speed="27.78" allow="passenger truck" oneway="0"/>
    <type id="25" priority="994" numLanes="7" speed="27.78" allow="passenger truck" oneway="0"/>
    <type id="26" priority="994" numLanes="6" speed="25.00" allow="passenger truck" oneway="0"/>
    <type id="27" priority="994" numLanes="5" speed="22.22" allow="passenger truck" oneway="0"/>
    <type id="28" priority="994" numLanes="5" speed="19.44" allow="passenger truck" oneway="0"/>
    <type id="29" priority="994" numLanes="4" speed="16.67" allow="passenger truck" oneway="0"/>
    <type id="3" priority="999" numLanes="23" speed="30.56" allow="passenger truck" oneway="0"/>
    <type id="30" priority="994" numLanes="3" speed="13.89" allow="passenger truck" oneway="0"/>
    <type id="31" priority="996" numLanes="14" speed="27.78" allow="passenger truck" oneway="0"/>
    <type id="32" priority="996" numLanes="13" speed="27.78" allow="passenger truck" oneway="0"/>
    <type id="33" priority="996" numLanes="12" speed="25.00" allow="passenger truck" oneway="0"/>
    <type id="34" priority="996" numLanes="10" speed="22.22" allow="passenger truck" oneway="0"/>
    <type id="35" priority="996" numLanes="9" speed="19.44" allow="passenger truck" oneway="0"/>
    <type id="36" priority="996" numLanes="8" speed="16.67" allow="passenger truck" oneway="0"/>
    <type id="37" priority="996" numLanes="6" speed="13.89" allow="passenger truck" oneway="0"/>
    <type id="38" priority="997" numLanes="20" speed="27.78" allow="passenger truck" oneway="0"/>
    <type id="39" priority="997" numLanes="19" speed="27.78" allow="passenger truck" oneway="0"/>
    <type id="4" priority="999" numLanes="22" speed="27.78" allow="passenger truck" oneway="0"/>
    <type id="40" priority="997" numLanes="17" speed="25.00" allow="passenger truck" oneway="0"/>
    <type id="41" priority="997" numLanes="15" speed="22.22" allow="passenger truck" oneway="0"/>
    <type id="42" priority="997" numLanes="14" speed="19.44" allow="passenger truck" oneway="0"/>
    <type id="43" priority="997" numLanes="12" speed="16.67" allow="passenger truck" oneway="0"/>
    <type id="44" priority="991" numLanes="8" speed="22.22" allow="passenger truck" oneway="0"/>
    <type id="45" priority="991" numLanes="8" speed="19.44" allow="passenger truck" oneway="0"/>
    <type id="46" priority="991" numLanes="7" speed="16.67" allow="passenger truck" oneway="0"/>
    <type id="47" priority="991" numLanes="7" speed="13.89" allow="passenger truck" oneway="0"/>
    <type id="48" priority="991" numLanes="6" speed="11.11" allow="passenger truck" oneway="0"/>
    <type id="49" priority="991" numLanes="5" speed="8.33" allow="passenger truck" oneway="0"/>
    <type id="5" priority="999" numLanes="21" speed="25.00" allow="passenger truck" oneway="0"/>
    <type id="50" priority="992" numLanes="22" speed="22.22" allow="passenger truck" oneway="0"/>
    <type id="51" priority="992" numLanes="20" speed="19.44" allow="passenger truck" oneway="0"/>
    <type id="52" priority="992" numLanes="19" speed="16.67" allow="passenger truck" oneway="0"/>
    <type id="53" priority="992" numLanes="18" speed="13.89" allow="passenger truck" oneway="0"/>
    <type id="54" priority="992" numLanes="17" speed="11.11" allow="passenger truck" oneway="0"/>
    <type id="55" priority="992" numLanes="15" speed="8.33" allow="passenger truck" oneway="0"/>
    <type id="56" priority="993" numLanes="33" speed="22.22" allow="passenger truck" oneway="0"/>
    <type id="57" priority="993" numLanes="30" speed="19.44" allow="passenger truck" oneway="0"/>
    <type id="58" priority="993" numLanes="28" speed="16.67" allow="passenger truck" oneway="0"/>
    <type id="59" priority="993" numLanes="26" speed="13.89" allow="passenger truck" oneway="0"/>
    <type id="6" priority="999" numLanes="20" speed="22.22" allow="passenger truck" oneway="0"/>
    <type id="60" priority="993" numLanes="24" speed="11.11" allow="passenger truck" oneway="0"/>
    <type id="61" priority="993" numLanes="22" speed="8.33" allow="passenger truck" oneway="0"/>
    <type id="62" priority="990" numLanes="16" speed="19.44" allow="passenger truck" oneway="0"/>
    <type id="63" priority="990" numLanes="14" speed="16.67" allow="passenger truck" oneway="0"/>
    <type id="64" priority="990" numLanes="13" speed="13.89" allow="passenger truck" oneway="0"/>
    <type id="65" priority="988" numLanes="7" speed="16.67" allow="passenger truck" oneway="0"/>
    <type id="66" priority="988" numLanes="7" speed="13.89" allow="passenger truck" oneway="0"/>
    <type id="67" priority="988" numLanes="6" speed="13.89" allow="passenger truck" oneway="0"/>
    <type id="68" priority="988" numLanes="5" speed="11.11" allow="passenger truck" oneway="0"/>
    <type id="69" priority="988" numLanes="5" speed="11.11" allow="passenger truck" oneway="0"/>
    <type id="7" priority="999" numLanes="37" speed="36.11" allow="passenger truck" oneway="0"/>
    <type id="70" priority="988" numLanes="4" speed="8.33" allow="passenger truck" oneway="0"/>
    <type id="71" priority="988" numLanes="3" speed="8.33" allow="passenger truck" oneway="0"/>
    <type id="72" priority="988" numLanes="2" speed="5.56" allow="passenger truck" oneway="0"/>
    <type id="73" priority="989" numLanes="14" speed="16.67" allow="passenger truck" oneway="0"/>
    <type id="74" priority="989" numLanes="13" speed="13.89" allow="passenger truck" oneway="0"/>
    <type id="75" priority="989" numLanes="12" speed="13.89" allow="passenger truck" oneway="0"/>
    <type id="76" priority="989" numLanes="10" speed="11.11" allow="passenger truck" oneway="0"/>
    <type id="77" priority="989" numLanes="9" speed="11.11" allow="passenger truck" oneway="0"/>
    <type id="78" priority="989" numLanes="8" speed="8.33" allow="passenger truck" oneway="0"/>
    <type id="79" priority="989" numLanes="6" speed="8.33" allow="passenger truck" oneway="0"/>
    <type id="8" priority="999" numLanes="34" speed="33.33" allow="passenger truck" oneway="0"/>
    <type id="80" priority="987" numLanes="3" speed="5.56" allow="passenger truck" oneway="0"/>
    <type id="81" priority="988" numLanes="3" speed="8.33" allow="passenger truck" oneway="0"/>
    <type id="82" priority="988" numLanes="5" speed="11.11" allow="passenger truck" oneway="0"/>
    <type id="83" priority="988" numLanes="7" speed="13.89" allow="passenger truck" oneway="0"/>
    <type id="84" priority="989" numLanes="10" speed="16.67" allow="passenger truck" oneway="0"/>
    <type id="85" priority="989" numLanes="13" speed="19.44" allow="passenger truck" oneway="0"/>
    <type id="86" priority="994" numLanes="8" speed="22.22" allow="passenger truck" oneway="0"/>
    <type id="87" priority="996" numLanes="8" speed="25.00" allow="passenger truck" oneway="0"/>
    <type id="88" priority="997" numLanes="13" speed="27.78" allow="passenger truck" oneway="0"/>
    <type id="89" priority="998" numLanes="19" speed="30.56" allow="passenger truck" oneway="0"/>
    <type id="9" priority="999" numLanes="32" speed="30.56" allow="passenger truck" oneway="0"/>
    <type id="90" priority="901" numLanes="2" speed="5.56" allow="passenger truck" oneway="0"/>
    <type id="91" priority="1" numLanes="56" speed="27.78" oneway="0"/>
    <type id="92" priority="1" numLanes="56" speed="27.78" disallow="all" oneway="0"/>
    <type id="93" priority="1" numLanes="56" speed="27.78" disallow="all" oneway="0"/>
    <type id="94" priority="1" numLanes="56" speed="27.78" disallow="all" oneway="0"/>
    <type id="95" priority="1" numLanes="56" speed="27.78" disallow="all" oneway="0"/>
    <type id="96" priority="1" numLanes="56" speed="27.78" disallow="all" oneway="0"/>
    <type id="97" priority="1" numLanes="56" speed="27.78" disallow="all" oneway="0"/>
    <type id="98" priority="1" numLanes="56" speed="27.78" disallow="all" oneway="0"/>
    <type id="99" priority="1" numLanes="56" speed="27.78" disallow="all" oneway="0"/>

    <edge id="-53091382" from="1556" to="1555" priority="-1" type="83" shape="560.00,507.50 421.00,485.00 270.00,485.50 141.50,507.00 73.50,530.00 0.00,587.50">
        <lane id="-53091382_0" index="0" allow="passenger truck bicycle" speed="13.89" length="587.20" shape="559.37,509.02 420.87,486.60 270.14,487.10 141.89,508.56 74.27,531.43 0.99,588.76"/>
    </edge>
    <edge id="-53091482" from="100667830" to="1567" priority="-1" type="83">
        <lane id="-53091482_0" index="0" allow="passenger truck bicycle" speed="13.89" length="36.45" shape="359.90,1848.06 327.83,1831.78"/>
        <lane id="-53091482_1" index="1" allow="passenger truck bicycle" speed="13.89" length="36.45" shape="361.35,1845.21 329.28,1828.93"/>
    </edge>
    <edge id="-53091559" from="100667891" to="1566" priority="-1" type="83">
        <lane id="-53091559_0" index="0" allow="passenger truck bicycle" speed="13.89" length="357.11" shape="1050.54,2475.33 795.25,2226.04"/>
        <lane id="-53091559_1" index="1" allow="passenger truck bicycle" speed="13.89" length="357.11" shape="1052.78,2473.05 797.49,2223.75"/>
    </edge>
    <edge id="-53091570" from="100667898" to="100667780" priority="-1" type="83">
        <lane id="-53091570_0" index="0" allow="passenger truck bicycle" speed="13.89" length="179.91" shape="1166.65,922.70 1058.34,1056.89"/>
    </edge>
    <edge id="-53091573" from="100667780" to="1507" priority="-1" type="83">
        <lane id="-53091573_0" index="0" allow="passenger truck bicycle" speed="13.89" length="27.41" shape="1058.16,1057.11 1041.26,1078.49"/>
    </edge>
    <edge id="-53091615" from="1562" to="1560" priority="-1" type="83">
        <lane id="-53091615_0" index="0" allow="passenger truck bicycle" speed="13.89" length="165.37" shape="1975.82,1730.83 2069.62,1612.84"/>
        <lane id="-53091615_1" index="1" allow="passenger truck bicycle" speed="13.89" length="165.37" shape="1978.33,1732.82 2072.13,1614.83"/>
    </edge>
    <edge id="-53091628" from="1564" to="1563" priority="-1" type="83">
        <lane id="-53091628_0" index="0" allow="passenger truck bicycle" speed="13.89" length="353.84" shape="1519.18,2296.03 1758.65,2036.60"/>
    </edge>
    <edge id="-53091655" from="1672" to="1565" priority="-1" type="83">
        <lane id="-53091655_0" index="0" allow="passenger truck bicycle" speed="13.89" length="345.90" shape="1492.02,2903.60 1252.10,2676.11"/>
        <lane id="-53091655_1" index="1" allow="passenger truck bicycle" speed="13.89" length="345.90" shape="1494.22,2901.28 1254.30,2673.78"/>
    </edge>
    <edge id="-53092310" from="100668287" to="1661" priority="-1" type="83">
        <lane id="-53092310_0" index="0" allow="passenger truck bicycle" speed="13.89" length="44.90" shape="2957.47,2264.72 2980.14,2285.33"/>
    </edge>
    <edge id="-53092402" from="1669" to="1661" priority="-1" type="81">
        <lane id="-53092402_0" index="0" allow="passenger truck bicycle" speed="8.33" length="211.84" shape="2854.26,2454.42 2978.47,2295.95"/>
    </edge>
    <edge id="-53092407" from="605001135" to="1610" priority="-1" type="86">
        <lane id="-53092407_0" index="0" allow="passenger truck bicycle" speed="22.22" length="98.39" shape="3498.43,2732.75 3418.92,2691.86"/>
    </edge>
    <edge id="-53092869" from="100668332" to="100668287" priority="-1" type="81">
        <lane id="-53092869_0" index="0" allow="passenger truck bicycle" speed="8.33" length="18.74" shape="2965.07,2248.69 2957.21,2256.86"/>
    </edge>
    <edge id="-545279717" from="100674949" to="100674627" priority="-1" type="85" shape="3425.00,20.00 3363.00,20.50 3300.50,34.50 3271.00,49.50">
        <lane id="-545279717_0" index="0" allow="passenger truck bicycle" speed="19.44" length="159.15" shape="3423.10,21.62 3363.18,22.10 3301.05,36.02 3271.97,50.80"/>
    </edge>
    <edge id="-545279727" from="100674916" to="100668362" priority="-1" type="86" shape="3930.50,3108.50 3778.50,2971.50 3605.50,2823.00">
        <lane id="-545279727_0" index="0" allow="passenger truck bicycle" speed="22.22" length="432.62" shape="3929.31,3109.58 3777.44,2972.70 3604.57,2824.31"/>
    </edge>
    <edge id="-545285123" from="1671" to="814" priority="-1" type="84" shape="2240.00,2807.50 2108.00,2823.00 2085.00,2842.00 1997.00,2926.50 1945.00,2971.50 1893.00,3031.00 1881.00,3058.00">
        <lane id="-545285123_0" index="0" allow="passenger truck bicycle" speed="16.67" length="462.08" shape="2238.98,2809.23 2108.66,2824.53 2086.07,2843.20 1998.08,2927.68 1946.13,2972.64 1894.36,3031.87 1886.32,3049.96"/>
    </edge>
    <edge id="-545285124" from="1563" to="1562" priority="-1" type="83" shape="1760.00,2037.50 1863.50,1881.50 1977.09,1736.94">
        <lane id="-545285124_0" index="0" allow="passenger truck bicycle" speed="13.89" length="371.06" shape="1758.81,2036.40 1862.20,1880.56 1973.37,1739.10"/>
    </edge>
    <edge id="-545285126" from="1662" to="1560" priority="-1" type="83" shape="2620.00,2017.50 2368.00,1859.00 2232.50,1747.00 2080.00,1607.50">
        <lane id="-545285126_0" index="0" allow="passenger truck bicycle" speed="13.89" length="680.18" shape="2614.07,2019.44 2365.18,1862.90 2229.35,1750.62 2084.21,1617.86"/>
        <lane id="-545285126_1" index="1" allow="passenger truck bicycle" speed="13.89" length="680.18" shape="2615.77,2016.73 2367.06,1860.30 2231.45,1748.21 2086.37,1615.50"/>
    </edge>
    <edge id="-545285142" from="100667898" to="1558" priority="-1" type="83" shape="1170.00,916.00 1203.50,940.00 1420.00,1127.50">
        <lane id="-545285142_0" index="0" allow="passenger truck bicycle" speed="13.89" length="327.62" shape="1176.64,918.79 1204.49,938.74 1420.86,1126.13"/>
    </edge>
    <edge id="-59394061" from="100674626" to="100668229" priority="-1" type="82">
        <lane id="-59394061_0" index="0" allow="passenger truck bicycle" speed="11.11" length="346.04" shape="3236.00,77.82 3024.36,350.86"/>
    </edge>
    <edge id="-59394070" from="100674627" to="100674626" priority="-1" type="85">
        <lane id="-59394070_0" index="0" allow="passenger truck bicycle" speed="19.44" length="45.00" shape="3271.74,50.95 3236.30,77.52"/>
    </edge>
    <edge id="-83535600" from="100674947" to="1678" priority="-1" type="85" shape="3449.00,15.00 3514.50,0.00 3616.00,1.50">
        <lane id="-83535600_0" index="0" allow="passenger truck bicycle" speed="19.44" length="168.71" shape="3450.93,12.92 3514.33,-1.60 3616.02,-0.10"/>
    </edge>
    <edge id="-83535603" from="100674949" to="100674947" priority="-1" type="0" shape="3425.00,20.00 3428.00,25.50 3448.00,27.50 3449.00,15.00">
        <lane id="-83535603_0" index="0" allow="bicycle" speed="3.06" length="38.90" shape="3427.32,20.92 3429.00,23.99 3446.54,25.75 3447.22,17.21"/>
    </edge>
    <edge id="-905001136" from="100667898" to="1556" priority="-1" type="83" shape="1170.00,916.00 1126.00,883.00 1105.50,866.50 722.50,580.50 646.50,543.50 560.00,507.50">
        <lane id="-905001136_0" index="0" allow="passenger truck bicycle" speed="13.89" length="737.54" shape="1163.19,912.89 1125.02,884.26 1104.52,867.76 721.66,581.87 645.84,544.96 559.73,509.12"/>
    </edge>
    <edge id="-905001580" from="100668332" to="1668" priority="-1" type="81" shape="2964.00,2247.50 3016.50,2184.50 3078.00,2067.00 3135.00,1905.00 3157.71,1858.61">
        <lane id="-905001580_0" index="0" allow="passenger truck bicycle" speed="8.33" length="438.01" shape="2962.84,2246.39 3015.16,2183.61 3076.53,2066.36 3133.52,1904.38 3155.08,1860.35"/>
    </edge>
    <edge id="-905001592" from="100668295" to="1668" priority="-1" type="81" shape="3399.00,1940.00 3276.00,1894.50 3157.71,1858.61">
        <lane id="-905001592_0" index="0" allow="passenger truck bicycle" speed="8.33" length="254.76" shape="3395.80,1940.52 3275.49,1896.02 3159.85,1860.93"/>
    </edge>
    <edge id="-905002241" from="100668353" to="1669" priority="-1" type="81" shape="3051.50,2609.00 2989.50,2562.00 2921.00,2510.50 2853.54,2457.93">
        <lane id="-905002241_0" index="0" allow="passenger truck bicycle" speed="8.33" length="249.02" shape="3048.09,2608.42 2988.54,2563.28 2920.03,2511.77 2855.09,2461.17"/>
    </edge>
    <edge id="-905002243" from="100668282" to="1665" priority="-1" type="81" shape="3539.00,1146.50 3582.00,1209.50 3634.50,1281.00 3640.00,1287.50">
        <lane id="-905002243_0" index="0" allow="passenger truck bicycle" speed="8.33" length="173.50" shape="3540.32,1145.60 3583.31,1208.58 3635.76,1280.01 3641.11,1286.34"/>
    </edge>
    <edge id="-905002245" from="1649" to="1610" priority="-1" type="83" shape="3200.00,2487.50 3266.00,2533.00 3307.00,2567.00 3365.00,2615.50 3429.50,2670.50 3412.00,2686.50">
        <lane id="-905002245_0" index="0" allow="passenger truck bicycle" speed="13.89" length="317.51" shape="3201.39,2486.52 3266.97,2531.72 3308.02,2565.77 3366.03,2614.28 3431.92,2670.46 3419.43,2681.88"/>
    </edge>
    <edge id="-905002246" from="1666" to="1665" priority="-1" type="81" shape="3466.38,1707.65 3703.50,1380.50 3640.00,1287.50">
        <lane id="-905002246_0" index="0" allow="passenger truck bicycle" speed="8.33" length="516.66" shape="3465.35,1706.36 3701.54,1380.47 3638.77,1288.54"/>
    </edge>
    <edge id="-905002247" from="100668353" to="1670" priority="-1" type="81" shape="3051.50,2609.00 3047.00,2615.50 2820.00,2827.50">
        <lane id="-905002247_0" index="0" allow="passenger truck bicycle" speed="8.33" length="318.51" shape="3051.07,2612.43 3048.22,2616.55 2822.75,2827.12"/>
    </edge>
    <edge id="-905002541" from="100667830" to="1566" priority="-1" type="83" shape="362.50,1844.00 397.50,1869.00 427.00,1890.00 558.00,1985.00 688.50,2115.00 798.50,2222.50">
        <lane id="-905002541_0" index="0" allow="passenger truck bicycle" speed="13.89" length="579.05" shape="365.68,1840.37 400.29,1865.09 429.80,1886.10 561.12,1981.33 691.87,2111.58 801.75,2218.96"/>
        <lane id="-905002541_1" index="1" allow="passenger truck bicycle" speed="13.89" length="579.05" shape="363.82,1842.98 398.43,1867.70 427.93,1888.70 559.04,1983.78 689.62,2113.86 799.51,2221.25"/>
    </edge>
    <edge id="-905002550" from="1565" to="1564" priority="-1" type="83" shape="1250.00,2667.50 1294.50,2624.00 1382.50,2509.50 1401.00,2484.00 1484.00,2378.50 1520.00,2297.50">
        <lane id="-905002550_0" index="0" allow="passenger truck bicycle" speed="13.89" length="461.02" shape="1257.28,2658.14 1293.30,2622.94 1381.22,2508.54 1399.72,2483.04 1482.62,2377.67 1518.32,2297.33"/>
    </edge>
    <edge id="-905002551" from="100667891" to="1565" priority="-1" type="83" shape="1054.00,2472.00 1132.50,2546.00 1220.00,2629.50 1242.00,2651.50 1250.00,2667.50">
        <lane id="-905002551_0" index="0" allow="passenger truck bicycle" speed="13.89" length="277.83" shape="1057.40,2468.60 1135.80,2542.52 1223.35,2626.07 1245.94,2648.66 1250.08,2656.93"/>
        <lane id="-905002551_1" index="1" allow="passenger truck bicycle" speed="13.89" length="277.83" shape="1055.20,2470.93 1133.60,2544.84 1221.12,2628.36 1243.31,2650.55 1247.22,2658.36"/>
    </edge>
    <edge id="-905002586" from="605000010" to="100668229" priority="-1" type="82">
        <lane id="-905002586_0" index="0" allow="pedestrian passenger truck bicycle" speed="11.11" length="474.91" shape="2739.60,719.96 3021.64,349.15"/>
    </edge>
    <edge id="-905005462" from="1612" to="1610" priority="-1" type="83">
        <lane id="-905005462_0" index="0" allow="passenger truck bicycle" speed="13.89" length="105.95" shape="3378.47,2787.02 3408.12,2693.44"/>
    </edge>
    <edge id="-905005617" from="605000010" to="1561" priority="-1" type="83">
        <lane id="-905005617_0" index="0" allow="pedestrian passenger truck bicycle" speed="13.89" length="424.90" shape="2733.11,733.84 2483.69,1065.26"/>
    </edge>
    <edge id="-905005621" from="1661" to="1649" priority="-1" type="83" shape="2984.22,2291.20 3117.50,2401.50 3172.50,2447.50 3200.00,2487.50">
        <lane id="-905005621_0" index="0" allow="passenger truck bicycle" speed="13.89" length="293.24" shape="2990.86,2294.62 3118.52,2400.27 3173.69,2446.41 3200.98,2486.11"/>
    </edge>
    <edge id="-905005623" from="100668287" to="1662" priority="-1" type="83" shape="2951.00,2261.00 2928.50,2241.00 2865.50,2187.00 2832.50,2157.50 2620.00,2017.50">
        <lane id="-905005623_0" index="0" allow="passenger truck bicycle" speed="13.89" length="411.82" shape="2944.65,2257.50 2927.45,2242.21 2864.45,2188.20 2831.52,2158.77 2622.46,2021.04"/>
    </edge>
    <edge id="-905005626" from="1672" to="814" priority="-1" type="83" shape="1501.00,2905.50 1559.00,2958.00 1618.50,2982.00 1881.00,3058.00">
        <lane id="-905005626_0" index="0" allow="passenger truck bicycle" speed="13.89" length="415.67" shape="1509.23,2906.47 1561.59,2953.87 1620.07,2977.46 1876.73,3051.77"/>
        <lane id="-905005626_1" index="1" allow="passenger truck bicycle" speed="13.89" length="415.67" shape="1507.08,2908.84 1559.86,2956.62 1619.02,2980.49 1875.84,3054.84"/>
    </edge>
    <edge id="-905006036" from="1671" to="1670" priority="-1" type="81" shape="2240.00,2807.50 2578.00,3043.50 2656.50,3105.00 2672.50,3106.00 2844.00,2882.50 2820.00,2827.50">
        <lane id="-905006036_0" index="0" allow="passenger truck bicycle" speed="8.33" length="869.72" shape="2241.91,2806.88 2578.95,3042.21 2657.10,3103.43 2671.75,3104.35 2842.16,2882.27 2819.44,2830.21"/>
    </edge>
    <edge id="-905006038" from="100668295" to="1666" priority="-1" type="81" shape="3399.00,1940.00 3405.50,1927.50 3456.50,1734.50 3466.38,1707.65">
        <lane id="-905006038_0" index="0" allow="passenger truck bicycle" speed="8.33" length="242.32" shape="3398.88,1936.76 3404.00,1926.92 3454.97,1734.02 3464.73,1707.52"/>
    </edge>
    <edge id="-905006039" from="605000010" to="1663" priority="-1" type="81">
        <lane id="-905006039_0" index="0" allow="pedestrian passenger truck bicycle" speed="8.33" length="292.87" shape="2744.51,728.55 3020.23,795.91"/>
    </edge>
    <edge id="-905006040" from="1664" to="1663" priority="-1" type="81">
        <lane id="-905006040_0" index="0" allow="pedestrian passenger truck bicycle" speed="8.33" length="343.66" shape="3358.27,848.86 3019.92,799.10"/>
    </edge>
    <edge id="-905006041" from="100668282" to="1664" priority="-1" type="81">
        <lane id="-905006041_0" index="0" allow="pedestrian passenger truck bicycle" speed="8.33" length="348.49" shape="3537.63,1147.32 3359.41,849.62"/>
    </edge>
    <edge id="-905006042" from="1561" to="1560" priority="-1" type="83">
        <lane id="-905006042_0" index="0" allow="pedestrian passenger truck bicycle" speed="13.89" length="672.01" shape="2481.48,1073.57 2090.10,1601.93"/>
        <lane id="-905006042_1" index="1" allow="pedestrian passenger truck bicycle" speed="13.89" length="672.01" shape="2478.91,1071.67 2087.53,1600.03"/>
    </edge>
    <edge id="-905006117" from="100674916" to="1659" priority="-1" type="86">
        <lane id="-905006117_0" index="0" allow="passenger truck bicycle" speed="22.22" length="133.46" shape="3931.80,3107.55 4021.19,3206.43"/>
    </edge>
    <edge id="-905006119" from="1559" to="1558" priority="-1" type="83" shape="1700.00,1337.50 1605.50,1243.50 1420.00,1127.50">
        <lane id="-905006119_0" index="0" allow="passenger truck bicycle" speed="13.89" length="345.21" shape="1690.52,1330.32 1604.50,1244.76 1419.36,1128.99"/>
    </edge>
    <edge id="-905006120" from="1560" to="1559" priority="-1" type="83" shape="2080.00,1607.50 1758.00,1356.00 1700.00,1337.50">
        <lane id="-905006120_0" index="0" allow="passenger truck bicycle" speed="13.89" length="476.50" shape="2070.80,1602.34 1757.24,1357.44 1698.12,1338.58"/>
    </edge>
    <edge id="-905006352" from="1672" to="261" priority="-1" type="0">
        <lane id="-905006352_0" index="0" allow="passenger bicycle" speed="3.06" length="105.42" shape="1506.36,2896.06 1564.74,2821.51"/>
    </edge>
    <edge id="-905006790" from="605001135" to="100668362" priority="-1" type="86">
        <lane id="-905006790_0" index="0" allow="passenger truck bicycle" speed="22.22" length="140.03" shape="3500.83,2730.54 3606.43,2821.69"/>
    </edge>
    <edge id="53091382" from="1555" to="1556" priority="-1" type="83" shape="0.00,587.50 73.50,530.00 141.50,507.00 270.00,485.50 421.00,485.00 560.00,507.50">
        <lane id="53091382_0" index="0" allow="passenger truck bicycle" speed="13.89" length="587.20" shape="-0.99,586.24 72.73,528.57 141.11,505.44 269.86,483.90 421.13,483.40 559.88,505.86"/>
    </edge>
    <edge id="53091482" from="1567" to="100667830" priority="-1" type="83">
        <lane id="53091482_0" index="0" allow="passenger truck bicycle" speed="13.89" length="36.45" shape="332.17,1823.22 364.24,1839.50"/>
        <lane id="53091482_1" index="1" allow="passenger truck bicycle" speed="13.89" length="36.45" shape="330.72,1826.07 362.79,1842.35"/>
    </edge>
    <edge id="53091559" from="1566" to="100667891" priority="-1" type="83">
        <lane id="53091559_0" index="0" allow="passenger truck bicycle" speed="13.89" length="357.11" shape="801.96,2219.17 1057.25,2468.47"/>
        <lane id="53091559_1" index="1" allow="passenger truck bicycle" speed="13.89" length="357.11" shape="799.73,2221.46 1055.02,2470.76"/>
    </edge>
    <edge id="53091570" from="100667780" to="100667898" priority="-1" type="83">
        <lane id="53091570_0" index="0" allow="passenger truck bicycle" speed="13.89" length="179.91" shape="1055.85,1054.88 1164.16,920.69"/>
    </edge>
    <edge id="53091573" from="1507" to="100667780" priority="-1" type="83">
        <lane id="53091573_0" index="0" allow="passenger truck bicycle" speed="13.89" length="27.41" shape="1038.74,1076.51 1055.65,1055.12"/>
    </edge>
    <edge id="53091615" from="1560" to="1562" priority="-1" type="83">
        <lane id="53091615_0" index="0" allow="passenger truck bicycle" speed="13.89" length="165.37" shape="2074.63,1616.82 1980.83,1734.81"/>
    </edge>
    <edge id="53091628" from="1563" to="1564" priority="-1" type="83">
        <lane id="53091628_0" index="0" allow="passenger truck bicycle" speed="13.89" length="353.84" shape="1761.00,2038.77 1521.53,2298.20"/>
    </edge>
    <edge id="53091655" from="1565" to="1672" priority="-1" type="83">
        <lane id="53091655_0" index="0" allow="passenger truck bicycle" speed="13.89" length="345.90" shape="1258.71,2669.14 1498.63,2896.64"/>
        <lane id="53091655_1" index="1" allow="passenger truck bicycle" speed="13.89" length="345.90" shape="1256.50,2671.46 1496.43,2898.96"/>
    </edge>
    <edge id="53092310" from="1661" to="100668287" priority="-1" type="83">
        <lane id="53092310_0" index="0" allow="passenger truck bicycle" speed="13.89" length="44.90" shape="2977.99,2287.70 2955.32,2267.09"/>
    </edge>
    <edge id="53092402" from="1661" to="1669" priority="-1" type="81">