<?xml version="1.0" encoding="UTF-8"?>
<routes xmlns:xsi="http://www.w3.org/2001/XMLSchema-instance" xsi:noNamespaceSchemaLocation="http://sumo.dlr.de/xsd/routes_file.xsd">
    <vType id="taxi" vClass="taxi">
        <param key="has.taxi.device" value="true"/>
        <param key="device.taxi.stands-rerouter" value="rr0"/>
    </vType>

    <trip id="taxi" type="taxi" depart="0.00" from="A0B0" to="C0D0" departSpeed="0">
        <stop lane="A0B0_1" triggered="person" endPos="20"/>
        <stop lane="C0D0_1" triggered="person" endPos="20"/>
    </trip>

</routes>
