<?xml version="1.0" encoding="UTF-8"?>

<!-- generated on 2022-02-04 15:08:54 by Eclipse SUMO netedit Version v1_12_0+0260-107ade780a5
<configuration xmlns:xsi="http://www.w3.org/2001/XMLSchema-instance" xsi:noNamespaceSchemaLocation="http://sumo.dlr.de/xsd/netconvertConfiguration.xsd">

    <input>
        <sumo-net-file value="C:\Users\SUMO-Test\.texttest\tmp\netedit.gui.04Feb145828.2848\netedit.gui\shapeElements\poigeo\create\angle\input_net.net.xml"/>
    </input>

    <output>
        <output-file value="C:\Users\SUMO-Test\.texttest\tmp\netedit.gui.04Feb145828.2848\netedit.gui\shapeElements\poigeo\create\angle\net.net.xml"/>
    </output>

    <processing>
        <geometry.min-radius.fix.railways value="false"/>
        <geometry.max-grade.fix value="false"/>
        <offset.disable-normalization value="true"/>
        <lefthand value="false"/>
    </processing>

    <junctions>
        <no-turnarounds value="true"/>
        <junctions.corner-detail value="5"/>
        <junctions.limit-turn-speed value="5.5"/>
        <rectangular-lane-cut value="false"/>
    </junctions>

    <pedestrian>
        <walkingareas value="false"/>
    </pedestrian>

    <netedit>
        <additional-files value="C:\Users\SUMO-Test\.texttest\tmp\netedit.gui.04Feb145828.2848\netedit.gui\shapeElements\poigeo\create\angle\additionals.xml"/>
        <additionals-output value="C:\Users\SUMO-Test\.texttest\tmp\netedit.gui.04Feb145828.2848\netedit.gui\shapeElements\poigeo\create\angle\additionals.xml"/>
        <route-files value="C:\Users\SUMO-Test\.texttest\tmp\netedit.gui.04Feb145828.2848\netedit.gui\shapeElements\poigeo\create\angle\routes.xml"/>
        <demandelements-output value="C:\Users\SUMO-Test\.texttest\tmp\netedit.gui.04Feb145828.2848\netedit.gui\shapeElements\poigeo\create\angle\routes.xml"/>
        <data-files value="C:\Users\SUMO-Test\.texttest\tmp\netedit.gui.04Feb145828.2848\netedit.gui\shapeElements\poigeo\create\angle\datas.xml"/>
        <dataelements-output value="C:\Users\SUMO-Test\.texttest\tmp\netedit.gui.04Feb145828.2848\netedit.gui\shapeElements\poigeo\create\angle\datas.xml"/>
    </netedit>

    <visualisation>
        <gui-settings-file value="C:\Users\SUMO-Test\.texttest\tmp\netedit.gui.04Feb145828.2848\netedit.gui\shapeElements\poigeo\create\angle\gui-settings.xml"/>
        <window-size value="936,697"/>
        <window-pos value="50,50"/>
        <gui-testing value="true"/>
        <gui-testing-debug value="true"/>
        <gui-testing-debug-gl value="true"/>
        <gui-testing.setting-output value="C:\Users\SUMO-Test\.texttest\tmp\netedit.gui.04Feb145828.2848\netedit.gui\shapeElements\poigeo\create\angle\guisettingsoutput.xml"/>
    </visualisation>

    <report>
        <no-warnings value="true"/>
        <aggregate-warnings value="5"/>
        <error-log value="C:\Users\SUMO-Test\.texttest\tmp\netedit.gui.04Feb145828.2848\netedit.gui\shapeElements\poigeo\create\angle\log.txt"/>
    </report>

</configuration>
-->

<additional xmlns:xsi="http://www.w3.org/2001/XMLSchema-instance" xsi:noNamespaceSchemaLocation="http://sumo.dlr.de/xsd/additional_file.xsd">
    <poi id="poi_0" color="red" layer="202.00" lon="10.511086" lat="0.000162" angle="500.00"/>
    <poi id="poi_1" color="red" layer="202.00" lon="10.511140" lat="0.000162" angle="-27.00"/>
    <poi id="poi_2" color="red" layer="202.00" lon="10.511175" lat="0.000162" angle="45.00"/>
</additional>
