<?xml version="1.0" encoding="UTF-8"?>

<!-- generated on 2022-06-01 14:58:41 by Eclipse SUMO netedit Version v1_13_0+0541-af1312cc9f7
-->

<routes xmlns:xsi="http://www.w3.org/2001/XMLSchema-instance" xsi:noNamespaceSchemaLocation="http://sumo.dlr.de/xsd/routes_file.xsd">
    <!-- Vehicles, persons and containers (sorted by depart) -->
    <container id="p_0" depart="0.00">
        <tranship from="gneE2" to="gneE5"/>
    </container>
</routes>
