<?xml version="1.0" encoding="UTF-8"?>

<!-- generated on Thu 30 Aug 2012 10:32:28 AM CEST by Netedit Version dev-SVN-r12586
<?xml version="1.0" encoding="UTF-8"?>

<configuration xmlns:xsi="http://www.w3.org/2001/XMLSchema-instance" xsi:noNamespaceSchemaLocation="http://sumo.sf.net/xsd/netedit.exeConfiguration.xsd">

    <input>
        <sumo-net-file value="/home/erdm_ja/delphi-extern/sumo/tests/sumo/extended/stops/teleport_across_stopped/net.net.xml"/>
    </input>

    <output>
        <output-file value="/home/erdm_ja/delphi-extern/sumo/tests/sumo/extended/stops/teleport_across_stopped/net.net.xml"/>
    </output>

    <processing>
        <no-internal-links value="true"/>
        <no-turnarounds value="true"/>
        <offset.disable-normalization value="true"/>
    </processing>

</configuration>
-->

<net version="0.13" xmlns:xsi="http://www.w3.org/2001/XMLSchema-instance" xsi:noNamespaceSchemaLocation="http://sumo.sf.net/xsd/net_file.xsd">

    <location netOffset="-500.00,0.00" convBoundary="0.00,0.00,1000.00,0.00" origBoundary="500.00,0.00,1500.00,0.00" projParameter="!"/>

    <edge id="beg" from="beg" to="center" priority="-1">
        <lane id="beg_0" index="0" speed="27.80" length="500.00" shape="0.00,-1.65 500.00,-1.65"/>
    </edge>
    <edge id="end" from="c2" to="end" priority="-1">
        <lane id="end_0" index="0" speed="27.80" length="498.00" shape="502.00,-1.65 1000.00,-1.65"/>
    </edge>
    <edge id="middle" from="center" to="c2" priority="-1">
        <lane id="middle_0" index="0" speed="27.80" length="2.00" shape="500.00,-1.65 502.00,-1.65"/>
    </edge>

    <junction id="beg" type="unregulated" x="0.00" y="0.00" incLanes="" intLanes="" shape="-0.00,-0.05 -0.00,-3.25">
    </junction>
    <junction id="c2" type="priority" x="502.00" y="0.00" incLanes="middle_0" intLanes="" shape="502.00,-0.05 502.00,-3.25 502.00,-0.05">
        <request index="0" response="0" foes="0"/>
    </junction>
    <junction id="center" type="priority" x="500.00" y="0.00" incLanes="beg_0" intLanes="" shape="500.00,-0.05 500.00,-3.25 500.00,-0.05">
        <request index="0" response="0" foes="0"/>
    </junction>
    <junction id="end" type="unregulated" x="1000.00" y="0.00" incLanes="end_0" intLanes="" shape="1000.00,-3.25 1000.00,-0.05">
    </junction>

    <connection from="beg" to="middle" fromLane="0" toLane="0" dir="s" state="M"/>
    <connection from="middle" to="end" fromLane="0" toLane="0" dir="s" state="M"/>

</net>
