<?xml version="1.0" encoding="UTF-8"?>

<!-- generated on 2024-04-03 10:18:32 by Eclipse SUMO netconvert Version v1_19_0+1653-1011da01c71
This data file and the accompanying materials
are made available under the terms of the Eclipse Public License v2.0
which accompanies this distribution, and is available at
http://www.eclipse.org/legal/epl-v20.html
This file may also be made available under the following Secondary
Licenses when the conditions for such availability set forth in the Eclipse
Public License 2.0 are satisfied: GNU General Public License, version 2
or later which is available at
https://www.gnu.org/licenses/old-licenses/gpl-2.0-standalone.html
SPDX-License-Identifier: EPL-2.0 OR GPL-2.0-or-later
<configuration xmlns:xsi="http://www.w3.org/2001/XMLSchema-instance" xsi:noNamespaceSchemaLocation="http://sumo.dlr.de/xsd/netconvertConfiguration.xsd">

    <input>
        <osm-files value="osm.xml"/>
    </input>

    <output>
        <write-license value="true"/>
        <ptstop-output value="additional.xml"/>
        <ptline-output value="ptlines.xml"/>
    </output>

    <projection>
        <proj.utm value="true"/>
    </projection>

    <processing>
        <geometry.remove value="true"/>
    </processing>

    <edge_removal>
        <remove-edges.by-vclass value="pedestrian,bicycle"/>
    </edge_removal>

    <junctions>
        <no-internal-links value="true"/>
        <junctions.join value="true"/>
    </junctions>

    <report>
        <xml-validation value="never"/>
    </report>

</configuration>
-->

<additional xmlns:xsi="http://www.w3.org/2001/XMLSchema-instance" xsi:noNamespaceSchemaLocation="http://sumo.dlr.de/xsd/additional_file.xsd">
    <busStop id="-7307151972" name="Albertusstraße" lane="-5067106#3_0" startPos="9.35" endPos="24.35" friendlyPos="true" lines="737"/>
    <busStop id="1234643991" name="Chausseestraße" lane="26216780#2_0" startPos="87.51" endPos="102.51" friendlyPos="true" lines="737 738"/>
    <busStop id="1643085195" name="A10 Center" lane="782661618#3_0" startPos="44.06" endPos="59.06" friendlyPos="true" lines="737 738"/>
    <busStop id="32500319" name="Chausseestraße" lane="4935299#0_0" startPos="172.98" endPos="187.98" friendlyPos="true"/>
    <busStop id="7307151973" name="Albertusstraße" lane="5067106#4_0" startPos="20.50" endPos="35.50" friendlyPos="true"/>
</additional>
