<?xml version="1.0" encoding="UTF-8"?>

<!-- generated on 2025-08-01 13:22:23 by Eclipse SUMO netconvert Version v1_24_0+0105-e209ab84cb0
This data file and the accompanying materials
are made available under the terms of the Eclipse Public License v2.0
which accompanies this distribution, and is available at
http://www.eclipse.org/legal/epl-v20.html
This file may also be made available under the following Secondary
Licenses when the conditions for such availability set forth in the Eclipse
Public License 2.0 are satisfied: GNU General Public License, version 2
or later which is available at
https://www.gnu.org/licenses/old-licenses/gpl-2.0-standalone.html
SPDX-License-Identifier: EPL-2.0 OR GPL-2.0-or-later
<netconvertConfiguration xmlns:xsi="http://www.w3.org/2001/XMLSchema-instance" xsi:noNamespaceSchemaLocation="http://sumo.dlr.de/xsd/netconvertConfiguration.xsd">

    <input>
        <osm-files value="osm.xml"/>
    </input>

    <output>
        <write-license value="true"/>
        <ptstop-output value="additional.xml"/>
        <ptline-output value="ptlines.xml"/>
    </output>

    <projection>
        <proj.utm value="true"/>
    </projection>

    <processing>
        <geometry.remove value="true"/>
    </processing>

    <edge_removal>
        <remove-edges.by-vclass value="pedestrian,bicycle"/>
    </edge_removal>

    <junctions>
        <no-internal-links value="true"/>
        <junctions.join value="true"/>
    </junctions>

    <report>
        <xml-validation value="never"/>
    </report>

</netconvertConfiguration>
-->

<net version="1.20" junctionCornerDetail="5" limitTurnSpeed="5.50" xmlns:xsi="http://www.w3.org/2001/XMLSchema-instance" xsi:noNamespaceSchemaLocation="http://sumo.dlr.de/xsd/net_file.xsd">

    <location netOffset="-404232.55,-5796659.91" convBoundary="0.00,0.00,997.45,907.89" origBoundary="13.594989,52.312049,13.613734,52.320400" projParameter="+proj=utm +zone=33 +ellps=WGS84 +datum=WGS84 +units=m +no_defs"/>

    <type id="highway.motorway" priority="14" numLanes="2" speed="39.44" allow="private emergency authority army vip passenger hov taxi bus coach delivery truck trailer motorcycle evehicle custom1 custom2" oneway="1"/>
    <type id="highway.motorway_link" priority="9" numLanes="1" speed="22.22" allow="private emergency authority army vip passenger hov taxi bus coach delivery truck trailer motorcycle evehicle custom1 custom2" oneway="1"/>
    <type id="highway.primary" priority="12" numLanes="2" speed="27.78" disallow="tram rail_urban rail rail_electric rail_fast ship container cable_car subway aircraft wheelchair scooter drone" oneway="0"/>
    <type id="highway.residential" priority="3" numLanes="1" speed="13.89" disallow="tram rail_urban rail rail_electric rail_fast ship container cable_car subway aircraft wheelchair scooter drone" oneway="0"/>
    <type id="highway.secondary" priority="11" numLanes="1" speed="27.78" disallow="tram rail_urban rail rail_electric rail_fast ship container cable_car subway aircraft wheelchair scooter drone" oneway="0"/>
    <type id="highway.service" priority="1" numLanes="1" speed="5.56" allow="pedestrian delivery bicycle" oneway="0"/>
    <type id="highway.tertiary" priority="10" numLanes="1" speed="22.22" disallow="tram rail_urban rail rail_electric rail_fast ship container cable_car subway aircraft wheelchair scooter drone" oneway="0"/>
    <type id="highway.unclassified" priority="4" numLanes="1" speed="13.89" disallow="tram rail_urban rail rail_electric rail_fast ship container cable_car subway aircraft wheelchair scooter drone" oneway="0"/>

    <edge id="-156640650#1" from="cluster_428067379_428674283" to="1688751025" priority="1" type="highway.service" shape="798.82,162.44 807.47,136.50 815.36,114.23 802.86,88.32 797.29,77.05 787.64,57.51 768.70,19.15 765.18,12.04 763.71,9.06">
        <lane id="-156640650#1_0" index="0" allow="pedestrian delivery bicycle" speed="5.56" length="164.22" shape="801.37,149.73 805.96,135.98 813.63,114.32 801.42,89.02 795.86,77.76 786.21,58.22 767.27,19.86 764.59,14.45"/>
    </edge>
    <edge id="-156640650#2" from="428067256" to="cluster_428067379_428674283" priority="1" type="highway.service" shape="789.60,187.09 798.82,162.44">
        <lane id="-156640650#2_0" index="0" allow="pedestrian delivery bicycle" speed="5.56" length="38.20" shape="791.42,177.66 797.32,161.88"/>
    </edge>
    <edge id="-156640650#3" from="428066745" to="428067256" priority="1" type="highway.service">
        <lane id="-156640650#3_0" index="0" allow="pedestrian delivery bicycle" speed="5.56" length="23.73" shape="783.56,199.74 787.20,189.16"/>
    </edge>
    <edge id="-156640663#0" from="428323452" to="cluster_428324809_428325705" priority="1" type="highway.service" shape="597.67,389.02 609.25,404.42">
        <lane id="-156640663#0_0" index="0" allow="pedestrian delivery bicycle" speed="5.56" length="22.43" shape="601.79,391.84 607.71,399.71"/>
    </edge>
    <edge id="-156640663#1" from="428324086" to="428323452" priority="1" type="highway.service" shape="647.20,329.69 591.47,370.57 589.87,373.53 590.78,378.29 597.67,389.02">
        <lane id="-156640663#1_0" index="0" allow="pedestrian delivery bicycle" speed="5.56" length="90.08" shape="644.30,333.80 592.71,371.65 591.55,373.79 592.29,377.69 596.36,384.02"/>
    </edge>
    <edge id="-156775052#0" from="428674284" to="cluster_428067379_428674283" priority="1" type="highway.service" shape="776.88,157.48 793.77,149.31">
        <lane id="-156775052#0_0" index="0" allow="pedestrian delivery bicycle" speed="5.56" length="18.46" shape="780.41,154.00 787.82,150.41"/>
    </edge>
    <edge id="-156775052#1" from="428674285" to="428674284" priority="1" type="highway.service">
        <lane id="-156775052#1_0" index="0" allow="pedestrian delivery bicycle" speed="5.56" length="15.90" shape="765.97,160.89 771.84,158.10"/>
    </edge>
    <edge id="-156775052#2" from="428674286" to="428674285" priority="1" type="highway.service">
        <lane id="-156775052#2_0" index="0" allow="pedestrian delivery bicycle" speed="5.56" length="17.60" shape="750.21,168.43 755.72,165.79"/>
    </edge>
    <edge id="-156775052#4" from="305007193" to="428674286" priority="1" type="highway.service" shape="724.93,182.34 735.82,177.11 746.65,171.91">
        <lane id="-156775052#4_0" index="0" allow="pedestrian delivery bicycle" speed="5.56" length="24.09" shape="728.46,178.87 735.13,175.67 741.70,172.51"/>
    </edge>
    <edge id="-156775052#5" from="305007134" to="305007193" priority="1" type="highway.service">
        <lane id="-156775052#5_0" index="0" allow="pedestrian delivery bicycle" speed="5.56" length="17.63" shape="712.57,186.49 716.82,184.45"/>
    </edge>
    <edge id="-156775052#6" from="305007106" to="305007134" priority="1" type="highway.service">
        <lane id="-156775052#6_0" index="0" allow="pedestrian delivery bicycle" speed="5.56" length="17.39" shape="696.89,194.00 701.48,191.80"/>
    </edge>
    <edge id="-156775052#7" from="305007153" to="305007106" priority="1" type="highway.service">
        <lane id="-156775052#7_0" index="0" allow="pedestrian delivery bicycle" speed="5.56" length="17.18" shape="681.34,201.45 685.84,199.30"/>
    </edge>
    <edge id="-156775052#8" from="1643085172" to="305007153" priority="1" type="highway.service" shape="667.40,209.92 669.59,208.88 677.86,204.90">
        <lane id="-156775052#8_0" index="0" allow="pedestrian delivery bicycle" speed="5.56" length="11.60" shape="669.46,207.17 669.76,207.02"/>
    </edge>
    <edge id="-156775058#0" from="305007134" to="2526824587" priority="1" type="highway.service">
        <lane id="-156775058#0_0" index="0" allow="pedestrian delivery bicycle" speed="5.56" length="78.57" shape="712.50,193.52 742.18,255.88"/>
    </edge>
    <edge id="-156775058#2" from="428069652" to="305007134" priority="1" type="highway.service" shape="645.07,61.66 684.49,144.88 703.97,187.07 709.03,189.96">
        <lane id="-156775058#2_0" index="0" allow="pedestrian delivery bicycle" speed="5.56" length="144.12" shape="648.55,65.28 685.94,144.20 704.25,183.86"/>
    </edge>
    <edge id="-156775059#0" from="305007153" to="2526824586" priority="1" type="highway.service" shape="677.86,204.90 704.86,264.48 707.32,265.82 721.83,266.74 726.53,267.04">
        <lane id="-156775059#0_0" index="0" allow="pedestrian delivery bicycle" speed="5.56" length="87.46" shape="681.29,208.59 706.10,263.33 707.77,264.25 719.70,265.00"/>
    </edge>
    <edge id="-156775059#2" from="428069528" to="305007153" priority="1" type="highway.service" shape="615.06,78.83 652.78,160.07 672.44,202.35 677.86,204.90">
        <lane id="-156775059#2_0" index="0" allow="pedestrian delivery bicycle" speed="5.56" length="141.80" shape="620.12,85.92 654.23,159.40 672.46,198.60"/>
    </edge>
    <edge id="-156775063#2" from="2526824586" to="305007153" priority="1" type="highway.service" shape="726.53,267.04 721.83,266.74 707.32,265.82 704.86,264.48 677.86,204.90">
        <lane id="-156775063#2_0" index="0" allow="pedestrian delivery bicycle" speed="5.56" length="87.46" shape="719.49,268.20 706.87,267.39 703.62,265.63 678.37,209.91"/>
    </edge>
    <edge id="-156775063#3" from="2526824587" to="2526824586" priority="1" type="highway.service" shape="742.80,260.90 728.57,267.17 726.53,267.04">
        <lane id="-156775063#3_0" index="0" allow="pedestrian delivery bicycle" speed="5.56" length="17.51" shape="739.06,264.30 729.65,268.44"/>
    </edge>
    <edge id="-156775063#5" from="305007193" to="2526824587" priority="1" type="highway.service" shape="724.93,182.34 758.78,253.86 750.69,257.42 742.80,260.90">
        <lane id="-156775063#5_0" index="0" allow="pedestrian delivery bicycle" speed="5.56" length="96.59" shape="728.39,185.92 760.93,254.66 751.34,258.88 747.66,260.50"/>
    </edge>
    <edge id="-156775063#7" from="428069661" to="305007193" priority="1" type="highway.service" shape="661.32,53.58 700.12,137.40 719.25,179.66 724.93,182.34">
        <lane id="-156775063#7_0" index="0" allow="pedestrian delivery bicycle" speed="5.56" length="144.67" shape="664.78,57.26 701.57,136.73 719.42,176.15"/>
    </edge>
    <edge id="-164719877" from="21533060" to="1763285717" priority="11" type="highway.secondary" shape="302.03,392.98 241.91,418.01 170.10,447.90">
        <lane id="-164719877_0" index="0" disallow="tram rail_urban rail rail_electric rail_fast ship container cable_car subway aircraft wheelchair scooter drone" speed="27.78" length="142.90" shape="302.51,394.51 242.52,419.49 170.71,449.38"/>
        <param key="ref" value="L 400"/>
    </edge>
    <edge id="-219816202#0" from="2289456217" to="2289456408" priority="1" type="highway.service">
        <lane id="-219816202#0_0" index="0" allow="pedestrian delivery bicycle" speed="5.56" length="65.96" shape="491.29,592.05 438.03,622.33"/>
    </edge>
    <edge id="-219816202#1" from="2289456352" to="2289456217" priority="1" type="highway.service" shape="501.65,584.84 506.82,586.91 521.79,613.77 512.00,618.76 494.58,588.34">
        <lane id="-219816202#1_0" index="0" allow="pedestrian delivery bicycle" speed="5.56" length="82.36" shape="504.96,584.44 507.94,585.64 524.00,614.44 511.37,620.88 495.63,593.39"/>
    </edge>
    <edge id="-219816206" from="2289456323" to="2289456289" priority="1" type="highway.service">
        <lane id="-219816206_0" index="0" allow="pedestrian delivery bicycle" speed="5.56" length="16.67" shape="506.68,562.84 511.21,570.66"/>
    </edge>
    <edge id="-219816210#1" from="2289456458" to="2289456224" priority="1" type="highway.service" shape="504.53,512.36 517.46,503.91 502.02,479.41 473.23,433.65">
        <lane id="-219816210#1_0" index="0" allow="pedestrian delivery bicycle" speed="5.56" length="98.47" shape="507.62,508.43 515.27,503.43 500.67,480.26 474.37,438.47"/>
    </edge>
    <edge id="-219816212#0" from="266391230" to="266391236" priority="1" type="highway.service">
        <lane id="-219816212#0_0" index="0" allow="pedestrian delivery bicycle" speed="5.56" length="20.31" shape="487.76,525.23 478.65,531.19"/>
    </edge>
    <edge id="-219816212#2" from="266391233" to="266391230" priority="1" type="highway.service" shape="447.30,449.83 475.60,496.79 490.75,521.37">
        <lane id="-219816212#2_0" index="0" allow="pedestrian delivery bicycle" speed="5.56" length="83.70" shape="451.12,453.07 476.97,495.96 489.60,516.46"/>
    </edge>
    <edge id="-219816212#3" from="2289456402" to="266391233" priority="1" type="highway.service">
        <lane id="-219816212#3_0" index="0" allow="pedestrian delivery bicycle" speed="5.56" length="64.73" shape="416.34,398.42 446.10,444.98"/>
    </edge>
    <edge id="-219816216#0" from="2289456308" to="2289456248" priority="1" type="highway.service" shape="519.36,589.89 531.09,612.74 571.08,590.81 571.27,584.34 556.43,570.66">
        <lane id="-219816216#0_0" index="0" allow="pedestrian delivery bicycle" speed="5.56" length="97.95" shape="522.92,593.33 531.76,610.55 569.51,589.85 569.65,585.02 558.10,574.37"/>
    </edge>
    <edge id="-219816216#1" from="2289456289" to="2289456308" priority="1" type="highway.service">
        <lane id="-219816216#1_0" index="0" allow="pedestrian delivery bicycle" speed="5.56" length="16.27" shape="515.63,578.85 518.67,584.93"/>
    </edge>
    <edge id="-219816218" from="2289456418" to="2289456456" priority="1" type="highway.service">
        <lane id="-219816218_0" index="0" allow="pedestrian delivery bicycle" speed="5.56" length="64.18" shape="318.85,773.24 346.32,720.43"/>
    </edge>
    <edge id="-219816231#0" from="2289456458" to="266391230" priority="1" type="highway.service">
        <lane id="-219816231#0_0" index="0" allow="pedestrian delivery bicycle" speed="5.56" length="16.46" shape="501.51,516.25 495.63,520.09"/>
    </edge>
    <edge id="-219816231#2" from="2289456215" to="2289456458" priority="1" type="highway.service" shape="459.19,442.42 488.97,487.89 504.53,512.36">
        <lane id="-219816231#2_0" index="0" allow="pedestrian delivery bicycle" speed="5.56" length="83.35" shape="463.14,445.53 490.31,487.02 503.34,507.50"/>
    </edge>
    <edge id="-219816231#3" from="2289456337" to="2289456215" priority="1" type="highway.service" shape="425.52,387.17 442.77,414.86 459.19,442.42">
        <lane id="-219816231#3_0" index="0" allow="pedestrian delivery bicycle" speed="5.56" length="64.70" shape="429.37,390.32 444.14,414.03 458.12,437.50"/>
    </edge>
    <edge id="-219816233" from="2289456352" to="2289456217" priority="1" type="highway.service">
        <lane id="-219816233_0" index="0" allow="pedestrian delivery bicycle" speed="5.56" length="7.89" shape="498.93,587.97 498.75,588.06"/>
    </edge>
    <edge id="-219816235#0" from="2289456248" to="2289456308" priority="1" type="highway.service">
        <lane id="-219816235#0_0" index="0" allow="pedestrian delivery bicycle" speed="5.56" length="41.76" shape="552.35,574.58 524.31,589.12"/>
    </edge>
    <edge id="-219816235#2" from="2289456289" to="2289456248" priority="1" type="highway.service" shape="512.08,575.34 546.50,558.45 556.43,570.66">
        <lane id="-219816235#2_0" index="0" allow="pedestrian delivery bicycle" speed="5.56" length="54.08" shape="515.62,571.82 546.94,556.45 554.24,565.44"/>
    </edge>
    <edge id="-219816236#0" from="266391233" to="266391235" priority="1" type="highway.service">
        <lane id="-219816236#0_0" index="0" allow="pedestrian delivery bicycle" speed="5.56" length="20.50" shape="444.12,453.70 434.77,459.54"/>
    </edge>
    <edge id="-219816236#1" from="2289456215" to="266391233" priority="1" type="highway.service">
        <lane id="-219816236#1_0" index="0" allow="pedestrian delivery bicycle" speed="5.56" length="14.01" shape="456.10,446.23 452.10,448.72"/>
    </edge>
    <edge id="-219816236#10" from="266391235" to="2289456358" priority="1" type="highway.service">
        <lane id="-219816236#10_0" index="0" allow="pedestrian delivery bicycle" speed="5.56" length="18.29" shape="426.75,464.55 419.24,469.24"/>
    </edge>
    <edge id="-219816236#2" from="2289456224" to="2289456215" priority="1" type="highway.service">
        <lane id="-219816236#2_0" index="0" allow="pedestrian delivery bicycle" speed="5.56" length="16.55" shape="470.09,437.50 464.08,441.25"/>
    </edge>
    <edge id="-219816236#3" from="2289456337" to="2289456224" priority="1" type="highway.service" shape="425.52,387.17 439.02,378.80 473.23,433.65">
        <lane id="-219816236#3_0" index="0" allow="pedestrian delivery bicycle" speed="5.56" length="80.53" shape="428.68,383.33 439.53,376.60 472.10,428.82"/>
    </edge>
    <edge id="-219816236#4" from="2289456402" to="2289456337" priority="1" type="highway.service">
        <lane id="-219816236#4_0" index="0" allow="pedestrian delivery bicycle" speed="5.56" length="15.40" shape="415.63,391.43 420.69,388.29"/>
    </edge>
    <edge id="-219816236#5" from="2289456445" to="2289456402" priority="1" type="highway.service">
        <lane id="-219816236#5_0" index="0" allow="pedestrian delivery bicycle" speed="5.56" length="19.17" shape="399.31,401.67 407.63,396.43"/>
    </edge>
    <edge id="-219816236#6" from="2289456285" to="2289456445" priority="1" type="highway.service">
        <lane id="-219816236#6_0" index="0" allow="pedestrian delivery bicycle" speed="5.56" length="18.75" shape="383.49,411.73 391.34,406.72"/>
    </edge>
    <edge id="-219816236#8" from="2289456389" to="2289456285" priority="1" type="highway.service" shape="399.24,479.84 364.75,425.47 380.42,415.59">
        <lane id="-219816236#8_0" index="0" allow="pedestrian delivery bicycle" speed="5.56" length="82.91" shape="395.38,476.75 362.54,424.97 375.57,416.76"/>
    </edge>
    <edge id="-219816236#9" from="2289456358" to="2289456389" priority="1" type="highway.service">
        <lane id="-219816236#9_0" index="0" allow="pedestrian delivery bicycle" speed="5.56" length="17.87" shape="411.25,474.23 404.12,478.68"/>
    </edge>
    <edge id="-219816239" from="2289456389" to="2289456441" priority="1" type="highway.service" shape="399.24,479.84 419.96,511.81 434.47,502.71">
        <lane id="-219816239_0" index="0" allow="pedestrian delivery bicycle" speed="5.56" length="55.22" shape="403.17,482.96 420.45,509.62 429.63,503.86"/>
    </edge>
    <edge id="-219816242#0" from="2289456462" to="2289456352" priority="1" type="highway.service">
        <lane id="-219816242#0_0" index="0" allow="pedestrian delivery bicycle" speed="5.56" length="20.21" shape="494.73,569.20 500.67,579.81"/>
    </edge>
    <edge id="-219816242#1" from="2289456342" to="2289456462" priority="1" type="highway.service">
        <lane id="-219816242#1_0" index="0" allow="pedestrian delivery bicycle" speed="5.56" length="11.77" shape="488.79,559.02 491.53,563.65"/>
    </edge>
    <edge id="-219816244#0" from="266391235" to="2289456445" priority="1" type="highway.service">
        <lane id="-219816244#0_0" index="0" allow="pedestrian delivery bicycle" speed="5.56" length="64.66" shape="426.08,457.48 397.34,410.40"/>
    </edge>
    <edge id="-219816244#2" from="266391236" to="266391235" priority="1" type="highway.service" shape="473.75,532.48 458.43,507.25 429.91,460.69">
        <lane id="-219816244#2_0" index="0" allow="pedestrian delivery bicycle" speed="5.56" length="84.12" shape="469.89,529.20 457.06,508.08 431.02,465.56"/>
    </edge>
    <edge id="-219816246" from="cluster_2289456329_34160745" to="2289456305" priority="1" type="highway.service" shape="375.28,633.52 355.01,622.34 317.87,604.63 276.96,482.67">
        <lane id="-219816246_0" index="0" allow="pedestrian delivery bicycle" speed="5.56" length="196.89" shape="371.06,633.02 354.28,623.76 316.57,605.78 275.44,483.18"/>
    </edge>
    <edge id="-219816252#1" from="2289456441" to="2289456192" priority="1" type="highway.service" shape="434.47,502.71 443.04,516.51 458.95,542.16">
        <lane id="-219816252#1_0" index="0" allow="pedestrian delivery bicycle" speed="5.56" length="46.43" shape="438.32,505.87 444.40,515.67 457.79,537.26"/>
    </edge>
    <edge id="-219816252#2" from="2289456358" to="2289456441" priority="1" type="highway.service">
        <lane id="-219816252#2_0" index="0" allow="pedestrian delivery bicycle" speed="5.56" length="38.05" shape="418.24,473.54 433.36,497.89"/>
    </edge>
    <edge id="-219816252#3" from="2289456285" to="2289456358" priority="1" type="highway.service" shape="380.42,415.59 396.56,441.60 414.40,470.38">
        <lane id="-219816252#3_0" index="0" allow="pedestrian delivery bicycle" speed="5.56" length="64.47" shape="384.27,418.76 397.92,440.76 413.28,465.53"/>
    </edge>
    <edge id="-219816253#0" from="2289456418" to="2289456386" priority="1" type="highway.service" shape="318.12,778.11 346.02,793.08 323.45,836.21">
        <lane id="-219816253#0_0" index="0" allow="pedestrian delivery bicycle" speed="5.56" length="80.34" shape="322.98,778.90 348.17,792.42 324.87,836.95"/>
    </edge>
    <edge id="-219816253#1" from="cluster_2289456239_7103672860" to="2289456418" priority="1" type="highway.service" shape="305.11,771.64 310.06,774.10 318.12,778.11">
        <lane id="-219816253#1_0" index="0" allow="pedestrian delivery bicycle" speed="5.56" length="14.60" shape="309.87,772.22 310.77,772.67 314.68,774.61"/>
    </edge>
    <edge id="-219822390" from="2289509077" to="2289508433" priority="1" type="highway.service" shape="785.08,788.22 801.36,848.69 768.78,856.62 776.58,881.81">
        <lane id="-219822390_0" index="0" allow="pedestrian delivery bicycle" speed="5.56" length="122.52" shape="787.85,792.34 803.33,849.86 770.81,857.77 778.11,881.34"/>
    </edge>
    <edge id="-219822398#1" from="2289508762" to="2289508956" priority="1" type="highway.service" shape="769.17,659.76 765.97,664.34 762.99,669.93">
        <lane id="-219822398#1_0" index="0" allow="pedestrian delivery bicycle" speed="5.56" length="11.92" shape="768.41,663.64 767.34,665.18 766.51,666.73"/>
    </edge>
    <edge id="-219822399#0" from="2289508776" to="2289508334" priority="1" type="highway.service" shape="670.04,680.28 685.76,648.43 640.77,626.70">
        <lane id="-219822399#0_0" index="0" allow="pedestrian delivery bicycle" speed="5.56" length="85.48" shape="671.33,674.05 683.61,649.17 650.41,633.13"/>
    </edge>
    <edge id="-219822399#1" from="2289508334" to="2289508776" priority="1" type="highway.service">
        <lane id="-219822399#1_0" index="0" allow="pedestrian delivery bicycle" speed="5.56" length="61.05" shape="647.68,636.00 668.49,674.11"/>
    </edge>
    <edge id="-219822405" from="2289508317" to="2289509073" priority="1" type="highway.service">
        <lane id="-219822405_0" index="0" allow="pedestrian delivery bicycle" speed="5.56" length="66.81" shape="698.82,658.76 750.22,684.14"/>
    </edge>
    <edge id="-219822415#1" from="2289508566" to="290790973" priority="1" type="highway.service" shape="757.72,719.28 775.32,683.37 824.83,709.23 832.12,704.30 835.41,697.58">
        <lane id="-219822415#1_0" index="0" allow="pedestrian delivery bicycle" speed="5.56" length="112.13" shape="756.28,718.58 774.61,681.19 824.72,707.37 830.87,703.21 832.66,699.56"/>
    </edge>
    <edge id="-219822416#0" from="2289508317" to="2289508872" priority="1" type="highway.service">
        <lane id="-219822416#0_0" index="0" allow="pedestrian delivery bicycle" speed="5.56" length="17.35" shape="694.45,653.20 697.87,646.08"/>
    </edge>
    <edge id="-219822416#1" from="2289509073" to="2289508317" priority="1" type="highway.service" shape="753.78,687.68 745.89,702.90 685.90,674.70 693.87,658.10">
        <lane id="-219822416#1_0" index="0" allow="pedestrian delivery bicycle" speed="5.56" length="101.85" shape="753.01,692.65 746.60,705.00 683.76,675.46 690.38,661.68"/>
    </edge>
    <edge id="-219822416#2" from="2289508956" to="2289509073" priority="1" type="highway.service">
        <lane id="-219822416#2_0" index="0" allow="pedestrian delivery bicycle" speed="5.56" length="20.00" shape="762.16,675.01 757.34,684.30"/>
    </edge>
    <edge id="-219822416#3" from="2289508872" to="2289508956" priority="1" type="highway.service">
        <lane id="-219822416#3_0" index="0" allow="pedestrian delivery bicycle" speed="5.56" length="67.45" shape="706.25,642.88 759.17,666.48"/>
    </edge>
    <edge id="-219822416#4" from="2289508334" to="2289508872" priority="1" type="highway.service" shape="640.77,626.70 656.23,620.92 697.50,640.72 701.39,642.46">
        <lane id="-219822416#4_0" index="0" allow="pedestrian delivery bicycle" speed="5.56" length="66.54" shape="648.63,622.05 656.31,619.18 697.68,639.03"/>
    </edge>
    <edge id="-219822416#5" from="290791003" to="2289508334" priority="1" type="highway.service">
        <lane id="-219822416#5_0" index="0" allow="pedestrian delivery bicycle" speed="5.56" length="12.29" shape="637.27,619.41 639.71,622.63"/>
    </edge>
    <edge id="-219823329#1" from="2289518829" to="2289518845" priority="1" type="highway.service" shape="622.19,173.55 617.17,197.75 615.78,204.48">
        <lane id="-219823329#1_0" index="0" allow="pedestrian delivery bicycle" speed="5.56" length="31.59" shape="623.76,173.87 618.74,198.07 617.35,204.80"/>
    </edge>
    <edge id="-240042189" from="1234644171" to="2289508830" priority="3" type="highway.residential">
        <lane id="-240042189_0" index="0" disallow="tram rail_urban rail rail_electric rail_fast ship container cable_car subway aircraft wheelchair scooter drone" speed="13.89" length="21.10" width="3.00" shape="932.10,719.37 925.68,729.01"/>
    </edge>
    <edge id="-24498480#1" from="2289456192" to="cluster_266391218_266391220" priority="1" type="highway.service" shape="458.95,542.16 441.08,553.70 420.19,568.91 419.36,576.71 424.85,586.34 426.64,589.47">
        <lane id="-24498480#1_0" index="0" allow="pedestrian delivery bicycle" speed="5.56" length="75.87" shape="455.92,546.02 441.99,555.02 421.71,569.79 421.01,576.37 426.24,585.55 426.48,585.97"/>
    </edge>
    <edge id="-24498480#2" from="266391236" to="2289456192" priority="1" type="highway.service">
        <lane id="-24498480#2_0" index="0" allow="pedestrian delivery bicycle" speed="5.56" length="17.68" shape="470.78,536.33 463.82,540.88"/>
    </edge>
    <edge id="-27765297" from="2289508810" to="304883927" priority="1" type="highway.service" shape="637.25,151.34 638.69,161.22 635.35,169.30">
        <lane id="-27765297_0" index="0" allow="pedestrian delivery bicycle" speed="5.56" length="18.34" shape="639.09,164.45 636.83,169.91"/>
    </edge>
    <edge id="-27778180#1" from="305007106" to="428069593" priority="1" type="highway.service" shape="693.35,197.47 688.40,194.61 668.74,152.42 669.26,153.65 629.16,69.58">
        <lane id="-27778180#1_0" index="0" allow="pedestrian delivery bicycle" speed="5.56" length="146.48" shape="686.59,194.53 629.93,74.94"/>
    </edge>
    <edge id="-27778180#2" from="2526824586" to="305007106" priority="1" type="highway.service">
        <lane id="-27778180#2_0" index="0" allow="pedestrian delivery bicycle" speed="5.56" length="77.08" shape="722.09,261.46 693.93,202.41"/>
    </edge>
    <edge id="-36825527#0" from="428674286" to="428066745" priority="1" type="highway.service" shape="746.65,171.91 774.74,231.67 781.88,209.53">
        <lane id="-36825527#0_0" index="0" allow="pedestrian delivery bicycle" speed="5.56" length="89.30" shape="750.11,175.51 774.46,227.32 779.53,211.61"/>
    </edge>
    <edge id="-36825527#2" from="428069736" to="428674286" priority="1" type="highway.service" shape="683.19,42.69 724.69,125.37 746.65,171.91">
        <lane id="-36825527#2_0" index="0" allow="pedestrian delivery bicycle" speed="5.56" length="143.97" shape="686.73,46.18 726.13,124.67 746.08,166.96"/>
    </edge>
    <edge id="-36825575#0" from="428674285" to="428066745" priority="1" type="highway.service">
        <lane id="-36825575#0_0" index="0" allow="pedestrian delivery bicycle" speed="5.56" length="49.20" shape="765.90,168.12 779.49,199.89"/>
    </edge>
    <edge id="-36825575#2" from="428069759" to="428674285" priority="1" type="highway.service" shape="698.14,35.26 738.33,119.08 757.97,160.89 762.52,164.30">
        <lane id="-36825575#2_0" index="0" allow="pedestrian delivery bicycle" speed="5.56" length="144.73" shape="701.68,38.93 739.78,118.39 758.62,158.50"/>
    </edge>
    <edge id="-36825623#0" from="428674284" to="428067256" priority="1" type="highway.service">
        <lane id="-36825623#0_0" index="0" allow="pedestrian delivery bicycle" speed="5.56" length="32.23" shape="780.25,161.28 787.33,177.76"/>
    </edge>
    <edge id="-36825623#2" from="428069778" to="428674284" priority="1" type="highway.service" shape="714.51,28.26 754.41,111.38 776.88,157.48">
        <lane id="-36825623#2_0" index="0" allow="pedestrian delivery bicycle" speed="5.56" length="143.49" shape="718.05,31.93 755.85,110.68 776.24,152.52"/>
    </edge>
    <edge id="-36825663#2" from="428069844" to="cluster_428067379_428674283" priority="1" type="highway.service" shape="731.53,20.98 733.96,26.09 770.66,103.59 790.07,145.33 793.77,149.31">
        <lane id="-36825663#2_0" index="0" allow="pedestrian delivery bicycle" speed="5.56" length="144.83" shape="735.05,24.65 735.41,25.40 772.11,102.91 791.14,143.84"/>
    </edge>
    <edge id="-36846380#0" from="428325710" to="428323452" priority="1" type="highway.service">
        <lane id="-36846380#0_0" index="0" allow="pedestrian delivery bicycle" speed="5.56" length="74.60" shape="654.66,348.99 602.57,387.39"/>
    </edge>
    <edge id="-36846380#1" from="428326190" to="428325710" priority="1" type="highway.service">
        <lane id="-36846380#1_0" index="0" allow="pedestrian delivery bicycle" speed="5.56" length="22.04" shape="672.66,335.70 662.52,343.19"/>
    </edge>
    <edge id="-36846380#2" from="428323466" to="428326190" priority="1" type="highway.service" shape="678.62,314.52 684.88,323.66 675.44,331.65">