<?xml version="1.0" encoding="UTF-8"?>

<!-- generated on Mon 06 Jan 2020 02:03:08 PM CET by Eclipse SUMO netedit Version v1_4_0+0325-04f0045
<configuration xmlns:xsi="http://www.w3.org/2001/XMLSchema-instance" xsi:noNamespaceSchemaLocation="http://sumo.dlr.de/xsd/netconvertConfiguration.xsd">

    <input>
        <sumo-net-file value="/scr1/sumo/tests/sumo/pedestrian_model/striping/pedestrian_interactions/walkingarea_jam_4m_crossing/net.net.xml"/>
    </input>

    <output>
        <output-file value="/scr1/sumo/tests/sumo/pedestrian_model/striping/pedestrian_interactions/walkingarea_jam_4m_crossing/net.net.xml"/>
    </output>

    <processing>
        <geometry.min-radius.fix.railways value="false"/>
        <geometry.max-grade.fix value="false"/>
        <offset.disable-normalization value="true"/>
        <lefthand value="false"/>
    </processing>

    <junctions>
        <no-internal-links value="false"/>
        <no-turnarounds value="true"/>
        <junctions.corner-detail value="0"/>
        <junctions.limit-turn-speed value="-1"/>
        <rectangular-lane-cut value="false"/>
    </junctions>

    <pedestrian>
        <walkingareas value="true"/>
    </pedestrian>

    <report>
        <aggregate-warnings value="5"/>
    </report>

</configuration>
-->

<net version="1.3" walkingareas="true" xmlns:xsi="http://www.w3.org/2001/XMLSchema-instance" xsi:noNamespaceSchemaLocation="http://sumo.dlr.de/xsd/net_file.xsd">

    <location netOffset="100.00,100.00" convBoundary="0.00,0.00,200.00,200.00" origBoundary="-10000000000.00,-10000000000.00,10000000000.00,10000000000.00" projParameter="!"/>

    <edge id=":C_0" function="internal">
        <lane id=":C_0_0" index="0" disallow="pedestrian" speed="13.89" length="4.75" shape="95.20,107.20 94.85,104.75 93.80,103.00 93.60,102.88"/>
    </edge>
    <edge id=":C_1" function="internal">
        <lane id=":C_1_0" index="0" disallow="pedestrian" speed="13.89" length="14.40" shape="95.20,107.20 95.20,92.80"/>
    </edge>
    <edge id=":C_2" function="internal">
        <lane id=":C_2_0" index="0" disallow="pedestrian" speed="13.89" length="5.93" shape="98.40,107.20 98.95,103.35 100.00,101.60"/>
    </edge>
    <edge id=":C_3" function="internal">
        <lane id=":C_3_0" index="0" disallow="pedestrian" speed="13.89" length="2.34" shape="98.40,107.20 99.20,106.00 100.00,105.60"/>
    </edge>
    <edge id=":C_16" function="internal">
        <lane id=":C_16_0" index="0" disallow="pedestrian" speed="13.89" length="4.28" shape="93.60,102.88 92.05,101.95 89.60,101.60"/>
    </edge>
    <edge id=":C_17" function="internal">
        <lane id=":C_17_0" index="0" disallow="pedestrian" speed="13.89" length="8.26" shape="100.00,101.60 100.60,100.60 103.35,98.95 107.20,98.40"/>
    </edge>
    <edge id=":C_18" function="internal">
        <lane id=":C_18_0" index="0" disallow="pedestrian" speed="13.89" length="2.34" shape="100.00,105.60 100.80,106.00 101.60,107.20"/>
    </edge>
    <edge id=":C_4" function="internal">
        <lane id=":C_4_0" index="0" disallow="pedestrian" speed="13.89" length="4.75" shape="107.20,101.60 104.75,101.95 103.00,103.00 102.88,103.20"/>
    </edge>
    <edge id=":C_5" function="internal">
        <lane id=":C_5_0" index="0" disallow="pedestrian" speed="13.89" length="17.60" shape="107.20,101.60 89.60,101.60"/>
    </edge>
    <edge id=":C_6" function="internal">
        <lane id=":C_6_0" index="0" disallow="pedestrian" speed="13.89" length="5.93" shape="107.20,101.60 103.35,101.05 101.60,100.00"/>
    </edge>
    <edge id=":C_7" function="internal">
        <lane id=":C_7_0" index="0" disallow="pedestrian" speed="13.89" length="2.34" shape="107.20,101.60 106.00,100.80 105.60,100.00"/>
    </edge>
    <edge id=":C_19" function="internal">
        <lane id=":C_19_0" index="0" disallow="pedestrian" speed="13.89" length="4.28" shape="102.88,103.20 101.95,104.75 101.60,107.20"/>
    </edge>
    <edge id=":C_20" function="internal">
        <lane id=":C_20_0" index="0" disallow="pedestrian" speed="13.89" length="8.26" shape="101.60,100.00 100.60,99.40 98.95,96.65 98.40,92.80"/>
    </edge>
    <edge id=":C_21" function="internal">
        <lane id=":C_21_0" index="0" disallow="pedestrian" speed="13.89" length="2.34" shape="105.60,100.00 106.00,99.20 107.20,98.40"/>
    </edge>
    <edge id=":C_8" function="internal">
        <lane id=":C_8_0" index="0" disallow="pedestrian" speed="13.89" length="4.75" shape="101.60,92.80 101.95,95.25 103.00,97.00 103.20,97.12"/>
    </edge>
    <edge id=":C_9" function="internal">
        <lane id=":C_9_0" index="0" disallow="pedestrian" speed="13.89" length="14.40" shape="101.60,92.80 101.60,107.20"/>
    </edge>
    <edge id=":C_10" function="internal">
        <lane id=":C_10_0" index="0" disallow="pedestrian" speed="13.89" length="9.44" shape="101.60,92.80 100.85,96.65 98.60,99.40 96.80,100.19"/>
    </edge>
    <edge id=":C_11" function="internal">
        <lane id=":C_11_0" index="0" disallow="pedestrian" speed="13.89" length="2.34" shape="101.60,92.80 100.80,94.00 100.00,94.40"/>
    </edge>
    <edge id=":C_22" function="internal">
        <lane id=":C_22_0" index="0" disallow="pedestrian" speed="13.89" length="4.28" shape="103.20,97.12 104.75,98.05 107.20,98.40"/>
    </edge>
    <edge id=":C_23" function="internal">
        <lane id=":C_23_0" index="0" disallow="pedestrian" speed="13.89" length="7.41" shape="96.80,100.19 94.85,101.05 89.60,101.60"/>
    </edge>
    <edge id=":C_24" function="internal">
        <lane id=":C_24_0" index="0" disallow="pedestrian" speed="13.89" length="2.34" shape="100.00,94.40 99.20,94.00 98.40,92.80"/>
    </edge>
    <edge id=":C_12" function="internal">
        <lane id=":C_12_0" index="0" disallow="pedestrian" speed="13.89" length="4.75" shape="89.60,98.40 92.05,98.05 93.80,97.00 93.92,96.80"/>
    </edge>
    <edge id=":C_13" function="internal">
        <lane id=":C_13_0" index="0" disallow="pedestrian" speed="13.89" length="17.60" shape="89.60,98.40 107.20,98.40"/>
    </edge>
    <edge id=":C_14" function="internal">
        <lane id=":C_14_0" index="0" disallow="pedestrian" speed="13.89" length="7.89" shape="89.60,98.40 94.85,98.95 97.24,100.00"/>
    </edge>
    <edge id=":C_15" function="internal">
        <lane id=":C_15_0" index="0" disallow="pedestrian" speed="13.89" length="2.34" shape="89.60,98.40 90.80,99.20 91.20,100.00"/>
    </edge>
    <edge id=":C_25" function="internal">
        <lane id=":C_25_0" index="0" disallow="pedestrian" speed="13.89" length="4.28" shape="93.92,96.80 94.85,95.25 95.20,92.80"/>
    </edge>
    <edge id=":C_26" function="internal">
        <lane id=":C_26_0" index="0" disallow="pedestrian" speed="13.89" length="8.97" shape="97.24,100.00 98.60,100.60 100.85,103.35 101.60,107.20"/>
    </edge>
    <edge id=":C_27" function="internal">
        <lane id=":C_27_0" index="0" disallow="pedestrian" speed="13.89" length="2.34" shape="91.20,100.00 90.80,100.80 89.60,101.60"/>
    </edge>
    <edge id=":C_c0" function="crossing" crossingEdges="CN NC">
        <lane id=":C_c0_0" index="0" allow="pedestrian" speed="1.00" length="9.60" width="4.00" shape="103.20,105.20 93.60,105.20"/>
    </edge>
    <edge id=":C_c1" function="crossing" crossingEdges="CE EC">
        <lane id=":C_c1_0" index="0" allow="pedestrian" speed="1.00" length="6.40" width="4.00" shape="105.20,96.80 105.20,103.20"/>
    </edge>
    <edge id=":C_c2" function="crossing" crossingEdges="CS SC">
        <lane id=":C_c2_0" index="0" allow="pedestrian" speed="1.00" length="9.60" width="4.00" shape="93.60,94.80 103.20,94.80"/>
    </edge>
    <edge id=":C_c3" function="crossing" crossingEdges="CW WC">
        <lane id=":C_c3_0" index="0" allow="pedestrian" speed="1.00" length="6.40" width="4.00" shape="91.60,103.20 91.60,96.80"/>
    </edge>
    <edge id=":C_w0" function="walkingarea">
        <lane id=":C_w0_0" index="0" allow="pedestrian" speed="1.00" length="3.30" width="4.00" shape="93.60,103.20 89.60,103.20 89.60,105.20 91.60,107.20 93.60,107.20 93.60,103.20"/>
    </edge>
    <edge id=":C_w1" function="walkingarea">
        <lane id=":C_w1_0" index="0" allow="pedestrian" speed="1.00" length="3.30" width="4.00" shape="103.20,103.20 103.20,107.20 105.20,107.20 107.20,105.20 107.20,103.20 103.20,103.20"/>
    </edge>
    <edge id=":C_w2" function="walkingarea">
        <lane id=":C_w2_0" index="0" allow="pedestrian" speed="1.00" length="3.30" width="4.00" shape="103.20,96.80 107.20,96.80 107.20,94.80 105.20,92.80 103.20,92.80 103.20,96.80"/>
    </edge>
    <edge id=":C_w3" function="walkingarea">
        <lane id=":C_w3_0" index="0" allow="pedestrian" speed="1.00" length="3.30" width="4.00" shape="93.60,96.80 93.60,92.80 91.60,92.80 89.60,94.80 89.60,96.80 93.60,96.80"/>
    </edge>
    <edge id=":E_w0" function="walkingarea">
        <lane id=":E_w0_0" index="0" allow="pedestrian" speed="1.00" length="8.40" width="2.00" shape="200.00,103.20 200.00,105.20 200.00,94.80 200.00,96.80"/>
    </edge>
    <edge id=":N_0" function="internal">
        <lane id=":N_0_0" index="0" disallow="pedestrian" speed="13.89" length="4.67" shape="101.60,200.00 100.80,201.20 100.00,201.60 99.20,201.20 98.40,200.00"/>
    </edge>
    <edge id=":N_w0" function="walkingarea">
        <lane id=":N_w0_0" index="0" allow="pedestrian" speed="1.00" length="11.60" width="2.00" shape="93.60,200.00 91.60,200.00 105.20,200.00 103.20,200.00"/>
    </edge>
    <edge id=":S_0" function="internal">
        <lane id=":S_0_0" index="0" disallow="pedestrian" speed="13.89" length="4.67" shape="98.40,0.00 99.20,-1.20 100.00,-1.60 100.80,-1.20 101.60,0.00"/>
    </edge>
    <edge id=":S_w0" function="walkingarea">
        <lane id=":S_w0_0" index="0" allow="pedestrian" speed="1.00" length="11.60" width="2.00" shape="103.20,0.00 105.20,0.00 91.60,0.00 93.60,0.00"/>
    </edge>
    <edge id=":W_w0" function="walkingarea">
        <lane id=":W_w0_0" index="0" allow="pedestrian" speed="1.00" length="8.40" width="2.00" shape="0.00,96.80 0.00,94.80 0.00,105.20 0.00,103.20"/>
    </edge>

    <edge id="CE" from="C" to="E" priority="2">
        <lane id="CE_0" index="0" allow="pedestrian" speed="13.89" length="92.80" width="2.00" shape="107.20,95.80 200.00,95.80"/>
        <lane id="CE_1" index="1" disallow="pedestrian" speed="13.89" length="92.80" shape="107.20,98.40 200.00,98.40"/>
    </edge>
    <edge id="CN" from="C" to="N" priority="2">
        <lane id="CN_0" index="0" allow="pedestrian" speed="13.89" length="92.80" width="2.00" shape="104.20,107.20 104.20,200.00"/>
        <lane id="CN_1" index="1" disallow="pedestrian" speed="13.89" length="92.80" shape="101.60,107.20 101.60,200.00"/>
    </edge>
    <edge id="CS" from="C" to="S" priority="2">
        <lane id="CS_0" index="0" allow="pedestrian" speed="13.89" length="92.80" width="2.00" shape="92.60,92.80 92.60,0.00"/>
        <lane id="CS_1" index="1" disallow="pedestrian" speed="13.89" length="92.80" shape="95.20,92.80 95.20,0.00"/>
        <lane id="CS_2" index="2" disallow="pedestrian" speed="13.89" length="92.80" shape="98.40,92.80 98.40,0.00"/>
    </edge>
    <edge id="CW" from="C" to="W" priority="2">
        <lane id="CW_0" index="0" allow="pedestrian" speed="13.89" length="89.60" width="2.00" shape="89.60,104.20 0.00,104.20"/>
        <lane id="CW_1" index="1" disallow="pedestrian" speed="13.89" length="89.60" shape="89.60,101.60 0.00,101.60"/>
    </edge>
    <edge id="EC" from="E" to="C" priority="2">
        <lane id="EC_0" index="0" allow="pedestrian" speed="13.89" length="92.80" width="2.00" shape="200.00,104.20 107.20,104.20"/>
        <lane id="EC_1" index="1" disallow="pedestrian" speed="13.89" length="92.80" shape="200.00,101.60 107.20,101.60"/>
    </edge>
    <edge id="NC" from="N" to="C" priority="2">
        <lane id="NC_0" index="0" allow="pedestrian" speed="13.89" length="92.80" width="2.00" shape="92.60,200.00 92.60,107.20"/>
        <lane id="NC_1" index="1" disallow="pedestrian" speed="13.89" length="92.80" shape="95.20,200.00 95.20,107.20"/>
        <lane id="NC_2" index="2" disallow="pedestrian" speed="13.89" length="92.80" shape="98.40,200.00 98.40,107.20"/>
    </edge>
    <edge id="SC" from="S" to="C" priority="2">
        <lane id="SC_0" index="0" allow="pedestrian" speed="13.89" length="92.80" width="2.00" shape="104.20,0.00 104.20,92.80"/>
        <lane id="SC_1" index="1" disallow="pedestrian" speed="13.89" length="92.80" shape="101.60,0.00 101.60,92.80"/>
    </edge>
    <edge id="WC" from="W" to="C" priority="2">
        <lane id="WC_0" index="0" allow="pedestrian" speed="13.89" length="89.60" width="2.00" shape="0.00,95.80 89.60,95.80"/>
        <lane id="WC_1" index="1" disallow="pedestrian" speed="13.89" length="89.60" shape="0.00,98.40 89.60,98.40"/>
    </edge>

    <tlLogic id="C" type="static" programID="0" offset="0">
        <phase duration="33" state="gGggrrrrgGggrrrrrGrG"/>
        <phase duration="5"  state="gGggrrrrgGggrrrrrrrr"/>
        <phase duration="3"  state="yyggrrrryyggrrrrrrrr"/>
        <phase duration="6"  state="rrGGrrrrrrGGrrrrrrrr"/>
        <phase duration="3"  state="rryyrrrrrryyrrrrrrrr"/>
        <phase duration="32" state="rrrrgGggrrrrgGggGrGr"/>
        <phase duration="5"  state="rrrrgGggrrrrgGggrrrr"/>
        <phase duration="3"  state="rrrryyyyrrrryyyyrrrr"/>
    </tlLogic>

    <junction id="C" type="traffic_light" x="100.00" y="100.00" incLanes="NC_0 NC_1 NC_2 EC_0 EC_1 SC_0 SC_1 WC_0 WC_1 :C_w1_0 :C_w2_0 :C_w3_0 :C_w0_0" intLanes=":C_16_0 :C_1_0 :C_17_0 :C_18_0 :C_19_0 :C_5_0 :C_20_0 :C_21_0 :C_22_0 :C_9_0 :C_23_0 :C_24_0 :C_25_0 :C_13_0 :C_26_0 :C_27_0 :C_c0_0 :C_c1_0 :C_c2_0 :C_c3_0" shape="91.60,107.20 105.20,107.20 107.20,105.20 107.20,94.80 105.20,92.80 91.60,92.80 89.60,94.80 89.60,105.20">
        <request index="0"  response="10010000000000000000" foes="10011000010000100000" cont="1"/>
        <request index="1"  response="01010101000000000000" foes="01010111010000100000" cont="0"/>
        <request index="2"  response="00110100001101000000" foes="00110110001111100000" cont="1"/>
        <request index="3"  response="00010100001000010000" foes="00010100001000010000" cont="1"/>
        <request index="4"  response="00110000001000000000" foes="00110100001000001000" cont="1"/>
        <request index="5"  response="10100000011000000111" foes="10101100011000000111" cont="0"/>
        <request index="6"  response="01100010011000000100" foes="01100010111000000100" cont="1"/>
        <request index="7"  response="00100010000100000100" foes="00100010000100000100" cont="1"/>
        <request index="8"  response="01100000000000000000" foes="01100010000010000100" cont="1"/>
        <request index="9"  response="01010100000001010000" foes="01010110000001111100" cont="0"/>
        <request index="10" response="11000100000001000011" foes="11001110000001100011" cont="1"/>
        <request index="11" response="01000000000001000000" foes="01000000000001000000" cont="1"/>
        <request index="12" response="11000000000000000010" foes="11000000000000000010" cont="1"/>
        <request index="13" response="10100000011100000110" foes="10100000011111000110" cont="0"/>
        <request index="14" response="10010000011000110110" foes="10010000011000111110" cont="1"/>
        <request index="15" response="10000000010000100001" foes="10000000010000100001" cont="1"/>
        <request index="16" response="00000000000000000000" foes="00000100001000011111" cont="0"/>
        <request index="17" response="00000000000000000000" foes="00000010000111110100" cont="0"/>
        <request index="18" response="00000000000000000000" foes="00000001111101000010" cont="0"/>
        <request index="19" response="00000000000000000000" foes="00001111010000100001" cont="0"/>
    </junction>
    <junction id="E" type="dead_end" x="200.00" y="100.00" incLanes="CE_0 CE_1" intLanes="" shape="200.00,100.00 200.00,94.80 200.00,100.00"/>
    <junction id="N" type="priority" x="100.00" y="200.00" incLanes="CN_0 CN_1" intLanes=":N_0_0" shape="100.00,200.00 105.20,200.00 100.00,200.00">
        <request index="0" response="0" foes="0" cont="0"/>
    </junction>
    <junction id="S" type="priority" x="100.00" y="0.00" incLanes="CS_0 CS_1 CS_2" intLanes=":S_0_0" shape="100.00,0.00 91.60,0.00 100.00,0.00">
        <request index="0" response="0" foes="0" cont="0"/>
    </junction>
    <junction id="W" type="dead_end" x="0.00" y="100.00" incLanes="CW_0 CW_1" intLanes="" shape="0.00,100.00 0.00,105.20 0.00,100.00"/>

    <junction id=":C_16_0" type="internal" x="93.60" y="102.88" incLanes=":C_0_0" intLanes=":C_5_0 :C_10_0 :C_15_0 :C_c0_0 :C_c3_0"/>
    <junction id=":C_17_0" type="internal" x="100.00" y="101.60" incLanes=":C_2_0 SC_1" intLanes=":C_5_0 :C_6_0 :C_7_0 :C_8_0 :C_9_0 :C_13_0 :C_14_0 :C_c0_0 :C_c1_0"/>
    <junction id=":C_18_0" type="internal" x="100.00" y="105.60" incLanes=":C_3_0 EC_1 SC_1 WC_1" intLanes=":C_4_0 :C_9_0 :C_14_0 :C_c0_0 :C_c0_0"/>
    <junction id=":C_19_0" type="internal" x="102.88" y="103.20" incLanes=":C_4_0" intLanes=":C_3_0 :C_9_0 :C_14_0 :C_c0_0 :C_c1_0"/>
    <junction id=":C_20_0" type="internal" x="101.60" y="100.00" incLanes=":C_6_0 WC_1" intLanes=":C_1_0 :C_2_0 :C_9_0 :C_10_0 :C_11_0 :C_12_0 :C_13_0 :C_c1_0 :C_c2_0"/>
    <junction id=":C_21_0" type="internal" x="105.60" y="100.00" incLanes=":C_7_0 NC_2 SC_1 WC_1" intLanes=":C_2_0 :C_8_0 :C_13_0 :C_c1_0 :C_c1_0"/>
    <junction id=":C_22_0" type="internal" x="103.20" y="97.12" incLanes=":C_8_0" intLanes=":C_2_0 :C_7_0 :C_13_0 :C_c1_0 :C_c2_0"/>
    <junction id=":C_23_0" type="internal" x="96.80" y="100.19" incLanes=":C_10_0 NC_1" intLanes=":C_0_0 :C_1_0 :C_5_0 :C_6_0 :C_13_0 :C_14_0 :C_15_0 :C_c2_0 :C_c3_0"/>
    <junction id=":C_24_0" type="internal" x="100.00" y="94.40" incLanes=":C_11_0 EC_1 NC_1 WC_1" intLanes=":C_1_0 :C_6_0 :C_12_0 :C_c2_0 :C_c2_0"/>
    <junction id=":C_25_0" type="internal" x="93.92" y="96.80" incLanes=":C_12_0" intLanes=":C_1_0 :C_6_0 :C_11_0 :C_c2_0 :C_c3_0"/>
    <junction id=":C_26_0" type="internal" x="97.24" y="100.00" incLanes=":C_14_0 EC_1" intLanes=":C_1_0 :C_2_0 :C_3_0 :C_4_0 :C_5_0 :C_9_0 :C_10_0 :C_c0_0 :C_c3_0"/>
    <junction id=":C_27_0" type="internal" x="91.20" y="100.00" incLanes=":C_15_0 EC_1 NC_1 SC_1" intLanes=":C_0_0 :C_5_0 :C_10_0 :C_c3_0 :C_c3_0"/>

    <connection from="CN" to="NC" fromLane="1" toLane="2" via=":N_0_0" dir="t" state="M"/>
    <connection from="CS" to="SC" fromLane="2" toLane="1" via=":S_0_0" dir="t" state="M"/>
    <connection from="EC" to="CN" fromLane="1" toLane="1" via=":C_4_0" tl="C" linkIndex="4" dir="r" state="o"/>
    <connection from="EC" to="CW" fromLane="1" toLane="1" via=":C_5_0" tl="C" linkIndex="5" dir="s" state="o"/>
    <connection from="EC" to="CS" fromLane="1" toLane="2" via=":C_6_0" tl="C" linkIndex="6" dir="l" state="o"/>
    <connection from="EC" to="CE" fromLane="1" toLane="1" via=":C_7_0" tl="C" linkIndex="7" dir="t" state="o"/>
    <connection from="NC" to="CW" fromLane="1" toLane="1" via=":C_0_0" tl="C" linkIndex="0" dir="r" state="o"/>
    <connection from="NC" to="CS" fromLane="1" toLane="1" via=":C_1_0" tl="C" linkIndex="1" dir="s" state="o"/>
    <connection from="NC" to="CE" fromLane="2" toLane="1" via=":C_2_0" tl="C" linkIndex="2" dir="l" state="o"/>
    <connection from="NC" to="CN" fromLane="2" toLane="1" via=":C_3_0" tl="C" linkIndex="3" dir="t" state="o"/>
    <connection from="SC" to="CE" fromLane="1" toLane="1" via=":C_8_0" tl="C" linkIndex="8" dir="r" state="o"/>
    <connection from="SC" to="CN" fromLane="1" toLane="1" via=":C_9_0" tl="C" linkIndex="9" dir="s" state="o"/>
    <connection from="SC" to="CW" fromLane="1" toLane="1" via=":C_10_0" tl="C" linkIndex="10" dir="l" state="o"/>
    <connection from="SC" to="CS" fromLane="1" toLane="2" via=":C_11_0" tl="C" linkIndex="11" dir="t" state="o"/>
    <connection from="WC" to="CS" fromLane="1" toLane="1" via=":C_12_0" tl="C" linkIndex="12" dir="r" state="o"/>
    <connection from="WC" to="CE" fromLane="1" toLane="1" via=":C_13_0" tl="C" linkIndex="13" dir="s" state="o"/>
    <connection from="WC" to="CN" fromLane="1" toLane="1" via=":C_14_0" tl="C" linkIndex="14" dir="l" state="o"/>
    <connection from="WC" to="CW" fromLane="1" toLane="1" via=":C_15_0" tl="C" linkIndex="15" dir="t" state="o"/>

    <connection from=":C_0" to="CW" fromLane="0" toLane="1" via=":C_16_0" dir="r" state="m"/>
    <connection from=":C_16" to="CW" fromLane="0" toLane="1" dir="r" state="M"/>
    <connection from=":C_1" to="CS" fromLane="0" toLane="1" dir="s" state="M"/>
    <connection from=":C_2" to="CE" fromLane="0" toLane="1" via=":C_17_0" dir="l" state="m"/>
    <connection from=":C_17" to="CE" fromLane="0" toLane="1" dir="l" state="M"/>
    <connection from=":C_3" to="CN" fromLane="0" toLane="1" via=":C_18_0" dir="t" state="m"/>
    <connection from=":C_18" to="CN" fromLane="0" toLane="1" dir="t" state="M"/>
    <connection from=":C_4" to="CN" fromLane="0" toLane="1" via=":C_19_0" dir="r" state="m"/>
    <connection from=":C_19" to="CN" fromLane="0" toLane="1" dir="r" state="M"/>
    <connection from=":C_5" to="CW" fromLane="0" toLane="1" dir="s" state="M"/>
    <connection from=":C_6" to="CS" fromLane="0" toLane="2" via=":C_20_0" dir="l" state="m"/>
    <connection from=":C_20" to="CS" fromLane="0" toLane="2" dir="l" state="M"/>
    <connection from=":C_7" to="CE" fromLane="0" toLane="1" via=":C_21_0" dir="t" state="m"/>
    <connection from=":C_21" to="CE" fromLane="0" toLane="1" dir="t" state="M"/>
    <connection from=":C_8" to="CE" fromLane="0" toLane="1" via=":C_22_0" dir="r" state="m"/>
    <connection from=":C_22" to="CE" fromLane="0" toLane="1" dir="r" state="M"/>
    <connection from=":C_9" to="CN" fromLane="0" toLane="1" dir="s" state="M"/>
    <connection from=":C_10" to="CW" fromLane="0" toLane="1" via=":C_23_0" dir="l" state="m"/>
    <connection from=":C_23" to="CW" fromLane="0" toLane="1" dir="l" state="M"/>
    <connection from=":C_11" to="CS" fromLane="0" toLane="2" via=":C_24_0" dir="t" state="m"/>
    <connection from=":C_24" to="CS" fromLane="0" toLane="2" dir="t" state="M"/>
    <connection from=":C_12" to="CS" fromLane="0" toLane="1" via=":C_25_0" dir="r" state="m"/>
    <connection from=":C_25" to="CS" fromLane="0" toLane="1" dir="r" state="M"/>
    <connection from=":C_13" to="CE" fromLane="0" toLane="1" dir="s" state="M"/>
    <connection from=":C_14" to="CN" fromLane="0" toLane="1" via=":C_26_0" dir="l" state="m"/>
    <connection from=":C_26" to="CN" fromLane="0" toLane="1" dir="l" state="M"/>
    <connection from=":C_15" to="CW" fromLane="0" toLane="1" via=":C_27_0" dir="t" state="m"/>
    <connection from=":C_27" to="CW" fromLane="0" toLane="1" dir="t" state="M"/>
    <connection from=":N_0" to="NC" fromLane="0" toLane="2" dir="t" state="M"/>
    <connection from=":S_0" to="SC" fromLane="0" toLane="1" dir="t" state="M"/>

    <connection from=":C_c0" to=":C_w0" fromLane="0" toLane="0" dir="s" state="M"/>
    <connection from=":C_c1" to=":C_w1" fromLane="0" toLane="0" dir="s" state="M"/>
    <connection from=":C_c2" to=":C_w2" fromLane="0" toLane="0" dir="s" state="M"/>
    <connection from=":C_c3" to=":C_w3" fromLane="0" toLane="0" dir="s" state="M"/>
    <connection from=":C_w0" to=":C_c3" fromLane="0" toLane="0" tl="C" linkIndex="19" dir="s" state="M"/>
    <connection from=":C_w0" to="CW" fromLane="0" toLane="0" dir="s" state="M"/>
    <connection from="NC" to=":C_w0" fromLane="0" toLane="0" dir="s" state="M"/>
    <connection from=":C_w1" to=":C_c0" fromLane="0" toLane="0" tl="C" linkIndex="16" dir="s" state="M"/>
    <connection from=":C_w1" to="CN" fromLane="0" toLane="0" dir="s" state="M"/>
    <connection from="EC" to=":C_w1" fromLane="0" toLane="0" dir="s" state="M"/>
    <connection from=":C_w2" to=":C_c1" fromLane="0" toLane="0" tl="C" linkIndex="17" dir="s" state="M"/>
    <connection from=":C_w2" to="CE" fromLane="0" toLane="0" dir="s" state="M"/>
    <connection from="SC" to=":C_w2" fromLane="0" toLane="0" dir="s" state="M"/>
    <connection from=":C_w3" to=":C_c2" fromLane="0" toLane="0" tl="C" linkIndex="18" dir="s" state="M"/>
    <connection from=":C_w3" to="CS" fromLane="0" toLane="0" dir="s" state="M"/>
    <connection from="WC" to=":C_w3" fromLane="0" toLane="0" dir="s" state="M"/>
    <connection from=":E_w0" to="EC" fromLane="0" toLane="0" dir="s" state="M"/>
    <connection from="CE" to=":E_w0" fromLane="0" toLane="0" dir="s" state="M"/>
    <connection from=":N_w0" to="NC" fromLane="0" toLane="0" dir="s" state="M"/>
    <connection from="CN" to=":N_w0" fromLane="0" toLane="0" dir="s" state="M"/>
    <connection from=":S_w0" to="SC" fromLane="0" toLane="0" dir="s" state="M"/>
    <connection from="CS" to=":S_w0" fromLane="0" toLane="0" dir="s" state="M"/>
    <connection from=":W_w0" to="WC" fromLane="0" toLane="0" dir="s" state="M"/>
    <connection from="CW" to=":W_w0" fromLane="0" toLane="0" dir="s" state="M"/>
</net>
