<?xml version="1.0" encoding="UTF-8"?>

<!-- generated on 2025-09-08 11:14:59 by Eclipse SUMO netedit Version v1_24_0+0675-b62b98222ae
This data file and the accompanying materials
are made available under the terms of the Eclipse Public License v2.0
which accompanies this distribution, and is available at
http://www.eclipse.org/legal/epl-v20.html
This file may also be made available under the following Secondary
Licenses when the conditions for such availability set forth in the Eclipse
Public License 2.0 are satisfied: GNU General Public License, version 2
or later which is available at
https://www.gnu.org/licenses/old-licenses/gpl-2.0-standalone.html
SPDX-License-Identifier: EPL-2.0 OR GPL-2.0-or-later
-->

<additional xmlns:xsi="http://www.w3.org/2001/XMLSchema-instance" xsi:noNamespaceSchemaLocation="http://sumo.dlr.de/xsd/additional_file.xsd">
    <!-- JuPedSim elements -->
    <poly id="jps.walkable_area_0" type="jupedsim.walkable_area" color="179,217,255" fill="1" layer="1.00" shape="-12.000000,-8.000000 -12.000000,-12.000000 -16.000000,-12.000000 -16.000000,-8.000000 -12.000000,-8.000000"/>
    <poly id="jps.walkable_area_1" type="jupedsim.walkable_area" color="179,217,255" fill="1" layer="1.00" shape="-12.000000,8.000000 -16.000000,8.000000 -16.000000,12.000000 -12.000000,12.000000 -12.000000,8.000000"/>
    <poly id="jps.walkable_area_2" type="jupedsim.walkable_area" color="179,217,255" fill="1" layer="1.00" shape="12.000000,8.000000 16.000000,8.000000 16.000000,12.000000 12.000000,12.000000 12.000000,8.000000"/>
    <poly id="jps.walkable_area_4" type="jupedsim.walkable_area" color="179,217,255" fill="1" layer="1.00" shape="12.000000,-8.000000 12.000000,-12.000000 16.000000,-12.000000 16.000000,-8.000000 12.000000,-8.000000"/>
    <poly id="jps.obstacle_0" type="jupedsim.obstacle" color="255,204,204" fill="1" layer="2.00" shape="20.000000,12.000000 16.000000,12.000000 16.000000,8.000000 20.000000,8.000000 20.000000,12.000000"/>
    <poly id="jps.obstacle_1" type="jupedsim.obstacle" color="255,204,204" fill="1" layer="2.00" shape="20.000000,-8.000000 16.000000,-8.000000 16.000000,-12.000000 20.000000,-12.000000 20.000000,-8.000000"/>
    <poly id="jps.obstacle_2" type="jupedsim.obstacle" color="255,204,204" fill="1" layer="2.00" shape="-16.000000,-8.000000 -20.000000,-8.000000 -20.000000,-12.000000 -16.000000,-12.000000 -16.000000,-8.000000"/>
    <poly id="jps.obstacle_3" type="jupedsim.obstacle" color="255,204,204" fill="1" layer="2.00" shape="-16.000000,12.000000 -20.000000,12.000000 -20.000000,8.000000 -16.000000,8.000000 -16.000000,12.000000"/>
</additional>
