<?xml version="1.0" encoding="UTF-8"?>

<!-- generated on 2021-11-17 10:12:56 by Eclipse SUMO netedit Version v1_10_0+2354-ac183118758
-->

<additional xmlns:xsi="http://www.w3.org/2001/XMLSchema-instance" xsi:noNamespaceSchemaLocation="http://sumo.dlr.de/xsd/additional_file.xsd">
    <rerouter id="$$$$%%%%$$$" edges="gneE0 gneE1" pos="10.00,10.00"/>
    <rerouter id="customID" edges="gneE0 gneE1" pos="40.00,-10.00"/>
</additional>
