<?xml version="1.0" encoding="UTF-8"?>

<!-- generated on 2023-02-14 09:43:29 by Eclipse SUMO netedit Version v1_16_0+0167-b5f3c70e078
-->

<routes xmlns:xsi="http://www.w3.org/2001/XMLSchema-instance" xsi:noNamespaceSchemaLocation="http://sumo.dlr.de/xsd/routes_file.xsd">
    <!-- Vehicles, persons and containers (sorted by depart) -->
    <flow id="vehicle_3" begin="0.00" end="100.00" vehsPerHour="20.30">
        <route edges="gneE2" color="cyan"/>
    </flow>
    <flow id="vehicle_4" begin="0.00" end="100.00" vehsPerHour="20.30">
        <route edges="gneE2 gneE4 gneE5" color="cyan"/>
    </flow>
</routes>
