<?xml version="1.0" encoding="UTF-8"?>

<!-- generated on Mon Jul 31 08:06:33 2017 by SUMO netconvert Version dev-SVN-r25337
<?xml version="1.0" encoding="UTF-8"?>

<configuration xmlns:xsi="http://www.w3.org/2001/XMLSchema-instance" xsi:noNamespaceSchemaLocation="http://sumo.dlr.de/xsd/netconvertConfiguration.xsd">

    <input>
        <sumo-net-file value="net.netconvert"/>
    </input>

    <output>
        <plain-output-prefix value="input_plain"/>
    </output>

    <processing>
        <no-turnarounds value="true"/>
        <offset.disable-normalization value="true"/>
        <lefthand value="false"/>
        <junctions.corner-detail value="0"/>
        <rectangular-lane-cut value="false"/>
        <walkingareas value="false"/>
    </processing>

</configuration>
-->

<connections version="0.27" xmlns:xsi="http://www.w3.org/2001/XMLSchema-instance" xsi:noNamespaceSchemaLocation="http://sumo.dlr.de/xsd/connections_file.xsd">
    <connection from="EC" to="CN" fromLane="2" toLane="2"/>
    <connection from="EC" to="CW" fromLane="2" toLane="2"/>
    <connection from="EC" to="CW" fromLane="3" toLane="3"/>
    <connection from="EC" to="CS" fromLane="3" toLane="3"/>

    <connection from="NC" to="CW" fromLane="2" toLane="2"/>
    <connection from="NC" to="CS" fromLane="2" toLane="2"/>
    <connection from="NC" to="CS" fromLane="3" toLane="3"/>
    <connection from="NC" to="CE" fromLane="3" toLane="3"/>

    <connection from="SC" to="CE" fromLane="2" toLane="2"/>
    <connection from="SC" to="CN" fromLane="2" toLane="2"/>
    <connection from="SC" to="CN" fromLane="3" toLane="3"/>
    <connection from="SC" to="CW" fromLane="3" toLane="3"/>

    <connection from="WC" to="CS" fromLane="2" toLane="2"/>
    <connection from="WC" to="CE" fromLane="2" toLane="2"/>
    <connection from="WC" to="CE" fromLane="3" toLane="3"/>
    <connection from="WC" to="CN" fromLane="3" toLane="3"/>

    <crossing node="C" edges="CE EC" priority="1" width="4.50"/>
    <crossing node="C" edges="CS SC" priority="1" width="4.50"/>
</connections>
