<?xml version="1.0" encoding="UTF-8"?>

<!-- generated on 2025-12-02T08:54:15.033548+01:00 by Eclipse SUMO netedit v1_25_0+0186-18b5f2ee9b5
<neteditConfiguration xmlns:xsi="http://www.w3.org/2001/XMLSchema-instance" xsi:noNamespaceSchemaLocation="http://sumo.dlr.de/xsd/neteditConfiguration.xsd">

    <input>
        <sumo-net-file value="net.net.xml"/>
    </input>

    <output>
        <output-file value="net.net.xml"/>
    </output>

    <processing>
        <geometry.min-radius.fix.railways value="false"/>
        <geometry.avoid-overlap value="false"/>
        <geometry.max-grade.fix value="false"/>
        <offset.disable-normalization value="true"/>
        <lefthand value="0"/>
    </processing>

    <junctions>
        <no-internal-links value="true"/>
        <no-turnarounds value="true"/>
        <junctions.corner-detail value="5"/>
        <junctions.limit-turn-speed value="5.50"/>
        <rectangular-lane-cut value="0"/>
    </junctions>

    <pedestrian>
        <walkingareas value="0"/>
    </pedestrian>

</neteditConfiguration>
-->

<net version="1.20" junctionCornerDetail="5" limitTurnSpeed="5.50" avoidOverlap="0" xmlns:xsi="http://www.w3.org/2001/XMLSchema-instance" xsi:noNamespaceSchemaLocation="http://sumo.dlr.de/xsd/net_file.xsd">

    <location netOffset="0.00,0.00" convBoundary="0.00,0.00,1100.00,400.00" origBoundary="0.00,0.00,1100.00,400.00" projParameter="!"/>

    <edge id="-A0A1" from="A1" to="A0" priority="-1">
        <lane id="-A0A1_0" index="0" speed="13.89" length="100.00" shape="98.40,92.80 98.40,1.50"/>
    </edge>
    <edge id="-A1A2" from="A2" to="A1" priority="-1">
        <lane id="-A1A2_0" index="0" speed="13.89" length="100.00" shape="98.40,192.80 98.40,104.00"/>
    </edge>
    <edge id="-A2A3" from="A3" to="A2" priority="-1">
        <lane id="-A2A3_0" index="0" speed="13.89" length="100.00" shape="98.40,292.80 98.40,204.00"/>
    </edge>
    <edge id="-A3A4" from="A4" to="A3" priority="-1">
        <lane id="-A3A4_0" index="0" speed="13.89" length="100.00" shape="98.40,392.80 98.40,304.00"/>
    </edge>
    <edge id="-B0B1" from="B1" to="B0" priority="-1">
        <lane id="-B0B1_0" index="0" speed="13.89" length="100.00" shape="198.40,92.80 198.40,1.50"/>
    </edge>
    <edge id="-B1B2" from="B2" to="B1" priority="-1">
        <lane id="-B1B2_0" index="0" speed="13.89" length="100.00" shape="198.40,192.80 198.40,104.00"/>
    </edge>
    <edge id="-B2B3" from="B3" to="B2" priority="-1">
        <lane id="-B2B3_0" index="0" speed="13.89" length="100.00" shape="198.40,292.80 198.40,204.00"/>
    </edge>
    <edge id="-B3B4" from="B4" to="B3" priority="-1">
        <lane id="-B3B4_0" index="0" speed="13.89" length="100.00" shape="198.40,392.80 198.40,304.00"/>
    </edge>
    <edge id="-C0C1" from="C1" to="C0" priority="-1">
        <lane id="-C0C1_0" index="0" speed="13.89" length="100.00" shape="298.40,92.80 298.40,1.50"/>
    </edge>
    <edge id="-C1C2" from="C2" to="C1" priority="-1">
        <lane id="-C1C2_0" index="0" speed="13.89" length="100.00" shape="298.40,192.80 298.40,104.00"/>
    </edge>
    <edge id="-C2C3" from="C3" to="C2" priority="-1">
        <lane id="-C2C3_0" index="0" speed="13.89" length="100.00" shape="298.40,292.80 298.40,204.00"/>
    </edge>
    <edge id="-C3C4" from="C4" to="C3" priority="-1">
        <lane id="-C3C4_0" index="0" speed="13.89" length="100.00" shape="298.40,392.80 298.40,304.00"/>
    </edge>
    <edge id="-D0D1" from="D1" to="D0" priority="-1">
        <lane id="-D0D1_0" index="0" speed="13.89" length="100.00" shape="398.40,92.80 398.40,1.50"/>
    </edge>
    <edge id="-D1D2" from="D2" to="D1" priority="-1">
        <lane id="-D1D2_0" index="0" speed="13.89" length="100.00" shape="398.40,192.80 398.40,104.00"/>
    </edge>
    <edge id="-D2D3" from="D3" to="D2" priority="-1">
        <lane id="-D2D3_0" index="0" speed="13.89" length="100.00" shape="398.40,292.80 398.40,204.00"/>
    </edge>
    <edge id="-D3D4" from="D4" to="D3" priority="-1">
        <lane id="-D3D4_0" index="0" speed="13.89" length="100.00" shape="398.40,392.80 398.40,304.00"/>
    </edge>
    <edge id="-E0E1" from="E1" to="E0" priority="-1">
        <lane id="-E0E1_0" index="0" speed="13.89" length="100.00" shape="498.40,92.80 498.40,1.50"/>
    </edge>
    <edge id="-E1E2" from="E2" to="E1" priority="-1">
        <lane id="-E1E2_0" index="0" speed="13.89" length="100.00" shape="498.40,192.80 498.40,104.00"/>
    </edge>
    <edge id="-E2E3" from="E3" to="E2" priority="-1">
        <lane id="-E2E3_0" index="0" speed="13.89" length="100.00" shape="498.40,292.80 498.40,204.00"/>
    </edge>
    <edge id="-E3E4" from="E4" to="E3" priority="-1">
        <lane id="-E3E4_0" index="0" speed="13.89" length="100.00" shape="498.40,392.80 498.40,304.00"/>
    </edge>
    <edge id="-F0F1" from="F1" to="F0" priority="-1">
        <lane id="-F0F1_0" index="0" speed="13.89" length="100.00" shape="598.40,92.80 598.40,1.50"/>
    </edge>
    <edge id="-F1F2" from="F2" to="F1" priority="-1">
        <lane id="-F1F2_0" index="0" speed="13.89" length="100.00" shape="598.40,192.80 598.40,104.00"/>
    </edge>
    <edge id="-F2F3" from="F3" to="F2" priority="-1">
        <lane id="-F2F3_0" index="0" speed="13.89" length="100.00" shape="598.40,292.80 598.40,204.00"/>
    </edge>
    <edge id="-F3F4" from="F4" to="F3" priority="-1">
        <lane id="-F3F4_0" index="0" speed="13.89" length="100.00" shape="598.40,392.80 598.40,304.00"/>
    </edge>
    <edge id="-G0G1" from="G1" to="G0" priority="-1">
        <lane id="-G0G1_0" index="0" speed="13.89" length="100.00" shape="698.40,92.80 698.40,1.50"/>
    </edge>
    <edge id="-G1G2" from="G2" to="G1" priority="-1">
        <lane id="-G1G2_0" index="0" speed="13.89" length="100.00" shape="698.40,192.80 698.40,104.00"/>
    </edge>
    <edge id="-G2G3" from="G3" to="G2" priority="-1">
        <lane id="-G2G3_0" index="0" speed="13.89" length="100.00" shape="698.40,292.80 698.40,204.00"/>
    </edge>
    <edge id="-G3G4" from="G4" to="G3" priority="-1">
        <lane id="-G3G4_0" index="0" speed="13.89" length="100.00" shape="698.40,392.80 698.40,304.00"/>
    </edge>
    <edge id="-H0H1" from="H1" to="H0" priority="-1">
        <lane id="-H0H1_0" index="0" speed="13.89" length="100.00" shape="798.40,92.80 798.40,1.50"/>
    </edge>
    <edge id="-H1H2" from="H2" to="H1" priority="-1">
        <lane id="-H1H2_0" index="0" speed="13.89" length="100.00" shape="798.40,192.80 798.40,104.00"/>
    </edge>
    <edge id="-H2H3" from="H3" to="H2" priority="-1">
        <lane id="-H2H3_0" index="0" speed="13.89" length="100.00" shape="798.40,292.80 798.40,204.00"/>
    </edge>
    <edge id="-H3H4" from="H4" to="H3" priority="-1">
        <lane id="-H3H4_0" index="0" speed="13.89" length="100.00" shape="798.40,392.80 798.40,304.00"/>
    </edge>
    <edge id="-I0I1" from="I1" to="I0" priority="-1">
        <lane id="-I0I1_0" index="0" speed="13.89" length="100.00" shape="898.40,92.80 898.40,1.50"/>
    </edge>
    <edge id="-I1I2" from="I2" to="I1" priority="-1">
        <lane id="-I1I2_0" index="0" speed="13.89" length="100.00" shape="898.40,192.80 898.40,104.00"/>
    </edge>
    <edge id="-I2I3" from="I3" to="I2" priority="-1">
        <lane id="-I2I3_0" index="0" speed="13.89" length="100.00" shape="898.40,292.80 898.40,204.00"/>
    </edge>
    <edge id="-I3I4" from="I4" to="I3" priority="-1">
        <lane id="-I3I4_0" index="0" speed="13.89" length="100.00" shape="898.40,392.80 898.40,304.00"/>
    </edge>
    <edge id="-J0J1" from="J1" to="J0" priority="-1">
        <lane id="-J0J1_0" index="0" speed="13.89" length="100.00" shape="998.40,92.80 998.40,1.50"/>
    </edge>
    <edge id="-J1J2" from="J2" to="J1" priority="-1">
        <lane id="-J1J2_0" index="0" speed="13.89" length="100.00" shape="998.40,192.80 998.40,104.00"/>
    </edge>
    <edge id="-J2J3" from="J3" to="J2" priority="-1">
        <lane id="-J2J3_0" index="0" speed="13.89" length="100.00" shape="998.40,292.80 998.40,204.00"/>
    </edge>
    <edge id="-J3J4" from="J4" to="J3" priority="-1">
        <lane id="-J3J4_0" index="0" speed="13.89" length="100.00" shape="998.40,392.80 998.40,304.00"/>
    </edge>
    <edge id="A0A1" from="A0" to="A1" priority="-1">
        <lane id="A0A1_0" index="0" speed="13.89" length="100.00" shape="101.60,1.50 101.60,92.80"/>
    </edge>
    <edge id="A0B0" from="A0" to="B0" priority="-1">
        <lane id="A0B0_0" index="0" speed="13.89" length="100.00" shape="104.70,-1.60 195.30,-1.60"/>
    </edge>
    <edge id="A1A2" from="A1" to="A2" priority="-1">
        <lane id="A1A2_0" index="0" speed="13.89" length="100.00" shape="101.60,104.00 101.60,192.80"/>
    </edge>
    <edge id="A1B1" from="A1" to="B1" priority="-1">
        <lane id="A1B1_0" index="0" speed="13.89" length="100.00" shape="107.20,98.40 192.80,98.40"/>
    </edge>
    <edge id="A2A3" from="A2" to="A3" priority="-1">
        <lane id="A2A3_0" index="0" speed="13.89" length="100.00" shape="101.60,204.00 101.60,292.80"/>
    </edge>
    <edge id="A2B2" from="A2" to="B2" priority="-1">
        <lane id="A2B2_0" index="0" speed="13.89" length="100.00" shape="107.20,198.40 192.80,198.40"/>
    </edge>
    <edge id="A3A4" from="A3" to="A4" priority="-1">
        <lane id="A3A4_0" index="0" speed="13.89" length="100.00" shape="101.60,304.00 101.60,392.80"/>
    </edge>
    <edge id="A3B3" from="A3" to="B3" priority="-1">
        <lane id="A3B3_0" index="0" speed="13.89" length="100.00" shape="107.20,298.40 192.80,298.40"/>
    </edge>
    <edge id="A4B4" from="A4" to="B4" priority="-1">
        <lane id="A4B4_0" index="0" speed="13.89" length="100.00" shape="107.20,398.40 192.80,398.40"/>
    </edge>
    <edge id="B0B1" from="B0" to="B1" priority="-1">
        <lane id="B0B1_0" index="0" speed="13.89" length="100.00" shape="201.60,1.50 201.60,92.80"/>
    </edge>
    <edge id="B0C0" from="B0" to="C0" priority="-1">
        <lane id="B0C0_0" index="0" speed="13.89" length="100.00" shape="204.70,-1.60 295.30,-1.60"/>
    </edge>
    <edge id="B1B2" from="B1" to="B2" priority="-1">
        <lane id="B1B2_0" index="0" speed="13.89" length="100.00" shape="201.60,104.00 201.60,192.80"/>
    </edge>
    <edge id="B1C1" from="B1" to="C1" priority="-1">
        <lane id="B1C1_0" index="0" speed="13.89" length="100.00" shape="207.20,98.40 292.80,98.40"/>
    </edge>
    <edge id="B2B3" from="B2" to="B3" priority="-1">
        <lane id="B2B3_0" index="0" speed="13.89" length="100.00" shape="201.60,204.00 201.60,292.80"/>
    </edge>
    <edge id="B2C2" from="B2" to="C2" priority="-1">
        <lane id="B2C2_0" index="0" speed="13.89" length="100.00" shape="207.20,198.40 292.80,198.40"/>
    </edge>
    <edge id="B3B4" from="B3" to="B4" priority="-1">
        <lane id="B3B4_0" index="0" speed="13.89" length="100.00" shape="201.60,304.00 201.60,392.80"/>
    </edge>
    <edge id="B3C3" from="B3" to="C3" priority="-1">
        <lane id="B3C3_0" index="0" speed="13.89" length="100.00" shape="207.20,298.40 292.80,298.40"/>
    </edge>
    <edge id="B4C4" from="B4" to="C4" priority="-1">
        <lane id="B4C4_0" index="0" speed="13.89" length="100.00" shape="207.20,398.40 292.80,398.40"/>
    </edge>
    <edge id="C0C1" from="C0" to="C1" priority="-1">
        <lane id="C0C1_0" index="0" speed="13.89" length="100.00" shape="301.60,1.50 301.60,92.80"/>
    </edge>
    <edge id="C0D0" from="C0" to="D0" priority="-1">
        <lane id="C0D0_0" index="0" speed="13.89" length="100.00" shape="304.70,-1.60 395.30,-1.60"/>
    </edge>
    <edge id="C1C2" from="C1" to="C2" priority="-1">
        <lane id="C1C2_0" index="0" speed="13.89" length="100.00" shape="301.60,104.00 301.60,192.80"/>
    </edge>
    <edge id="C1D1" from="C1" to="D1" priority="-1">
        <lane id="C1D1_0" index="0" speed="13.89" length="100.00" shape="307.20,98.40 392.80,98.40"/>
    </edge>
    <edge id="C2C3" from="C2" to="C3" priority="-1">
        <lane id="C2C3_0" index="0" speed="13.89" length="100.00" shape="301.60,204.00 301.60,292.80"/>
    </edge>
    <edge id="C2D2" from="C2" to="D2" priority="-1">
        <lane id="C2D2_0" index="0" speed="13.89" length="100.00" shape="307.20,198.40 392.80,198.40"/>
    </edge>
    <edge id="C3C4" from="C3" to="C4" priority="-1">
        <lane id="C3C4_0" index="0" speed="13.89" length="100.00" shape="301.60,304.00 301.60,392.80"/>
    </edge>
    <edge id="C3D3" from="C3" to="D3" priority="-1">
        <lane id="C3D3_0" index="0" speed="13.89" length="100.00" shape="307.20,298.40 392.80,298.40"/>
    </edge>
    <edge id="C4D4" from="C4" to="D4" priority="-1">
        <lane id="C4D4_0" index="0" speed="13.89" length="100.00" shape="307.20,398.40 392.80,398.40"/>
    </edge>
    <edge id="D0D1" from="D0" to="D1" priority="-1">
        <lane id="D0D1_0" index="0" speed="13.89" length="100.00" shape="401.60,1.50 401.60,92.80"/>
    </edge>
    <edge id="D0E0" from="D0" to="E0" priority="-1">
        <lane id="D0E0_0" index="0" speed="13.89" length="100.00" shape="404.70,-1.60 495.30,-1.60"/>
    </edge>
    <edge id="D1D2" from="D1" to="D2" priority="-1">
        <lane id="D1D2_0" index="0" speed="13.89" length="100.00" shape="401.60,104.00 401.60,192.80"/>
    </edge>
    <edge id="D1E1" from="D1" to="E1" priority="-1">
        <lane id="D1E1_0" index="0" speed="13.89" length="100.00" shape="407.20,98.40 492.80,98.40"/>
    </edge>
    <edge id="D2D3" from="D2" to="D3" priority="-1">
        <lane id="D2D3_0" index="0" speed="13.89" length="100.00" shape="401.60,204.00 401.60,292.80"/>
    </edge>
    <edge id="D2E2" from="D2" to="E2" priority="-1">
        <lane id="D2E2_0" index="0" speed="13.89" length="100.00" shape="407.20,198.40 492.80,198.40"/>
    </edge>
    <edge id="D3D4" from="D3" to="D4" priority="-1">
        <lane id="D3D4_0" index="0" speed="13.89" length="100.00" shape="401.60,304.00 401.60,392.80"/>
    </edge>
    <edge id="D3E3" from="D3" to="E3" priority="-1">
        <lane id="D3E3_0" index="0" speed="13.89" length="100.00" shape="407.20,298.40 492.80,298.40"/>
    </edge>
    <edge id="D4E4" from="D4" to="E4" priority="-1">
        <lane id="D4E4_0" index="0" speed="13.89" length="100.00" shape="407.20,398.40 492.80,398.40"/>
    </edge>
    <edge id="E0E1" from="E0" to="E1" priority="-1">
        <lane id="E0E1_0" index="0" speed="13.89" length="100.00" shape="501.60,1.50 501.60,92.80"/>
    </edge>
    <edge id="E0F0" from="E0" to="F0" priority="-1">
        <lane id="E0F0_0" index="0" speed="13.89" length="100.00" shape="504.70,-1.60 595.30,-1.60"/>
    </edge>
    <edge id="E1E2" from="E1" to="E2" priority="-1">
        <lane id="E1E2_0" index="0" speed="13.89" length="100.00" shape="501.60,104.00 501.60,192.80"/>
    </edge>
    <edge id="E1F1" from="E1" to="F1" priority="-1">
        <lane id="E1F1_0" index="0" speed="13.89" length="100.00" shape="507.20,98.40 592.80,98.40"/>
    </edge>
    <edge id="E2E3" from="E2" to="E3" priority="-1">
        <lane id="E2E3_0" index="0" speed="13.89" length="100.00" shape="501.60,204.00 501.60,292.80"/>
    </edge>
    <edge id="E2F2" from="E2" to="F2" priority="-1">
        <lane id="E2F2_0" index="0" speed="13.89" length="100.00" shape="507.20,198.40 592.80,198.40"/>
    </edge>
    <edge id="E3E4" from="E3" to="E4" priority="-1">
        <lane id="E3E4_0" index="0" speed="13.89" length="100.00" shape="501.60,304.00 501.60,392.80"/>
    </edge>
    <edge id="E3F3" from="E3" to="F3" priority="-1">
        <lane id="E3F3_0" index="0" speed="13.89" length="100.00" shape="507.20,298.40 592.80,298.40"/>
    </edge>
    <edge id="E4F4" from="E4" to="F4" priority="-1">
        <lane id="E4F4_0" index="0" speed="13.89" length="100.00" shape="507.20,398.40 592.80,398.40"/>
    </edge>
    <edge id="F0F1" from="F0" to="F1" priority="-1">
        <lane id="F0F1_0" index="0" speed="13.89" length="100.00" shape="601.60,1.50 601.60,92.80"/>
    </edge>
    <edge id="F0G0" from="F0" to="G0" priority="-1">
        <lane id="F0G0_0" index="0" speed="13.89" length="100.00" shape="604.70,-1.60 695.30,-1.60"/>
    </edge>
    <edge id="F1F2" from="F1" to="F2" priority="-1">
        <lane id="F1F2_0" index="0" speed="13.89" length="100.00" shape="601.60,104.00 601.60,192.80"/>
    </edge>
    <edge id="F1G1" from="F1" to="G1" priority="-1">
        <lane id="F1G1_0" index="0" speed="13.89" length="100.00" shape="607.20,98.40 692.80,98.40"/>
    </edge>
    <edge id="F2F3" from="F2" to="F3" priority="-1">
        <lane id="F2F3_0" index="0" speed="13.89" length="100.00" shape="601.60,204.00 601.60,292.80"/>
    </edge>
    <edge id="F2G2" from="F2" to="G2" priority="-1">
        <lane id="F2G2_0" index="0" speed="13.89" length="100.00" shape="607.20,198.40 692.80,198.40"/>
    </edge>
    <edge id="F3F4" from="F3" to="F4" priority="-1">
        <lane id="F3F4_0" index="0" speed="13.89" length="100.00" shape="601.60,304.00 601.60,392.80"/>
    </edge>
    <edge id="F3G3" from="F3" to="G3" priority="-1">
        <lane id="F3G3_0" index="0" speed="13.89" length="100.00" shape="607.20,298.40 692.80,298.40"/>
    </edge>
    <edge id="F4G4" from="F4" to="G4" priority="-1">
        <lane id="F4G4_0" index="0" speed="13.89" length="100.00" shape="607.20,398.40 692.80,398.40"/>
    </edge>
    <edge id="G0G1" from="G0" to="G1" priority="-1">
        <lane id="G0G1_0" index="0" speed="13.89" length="100.00" shape="701.60,1.50 701.60,92.80"/>
    </edge>
    <edge id="G0H0" from="G0" to="H0" priority="-1">
        <lane id="G0H0_0" index="0" speed="13.89" length="100.00" shape="704.70,-1.60 795.30,-1.60"/>
    </edge>
    <edge id="G1G2" from="G1" to="G2" priority="-1">
        <lane id="G1G2_0" index="0" speed="13.89" length="100.00" shape="701.60,104.00 701.60,192.80"/>
    </edge>
    <edge id="G1H1" from="G1" to="H1" priority="-1">
        <lane id="G1H1_0" index="0" speed="13.89" length="100.00" shape="707.20,98.40 792.80,98.40"/>
    </edge>
    <edge id="G2G3" from="G2" to="G3" priority="-1">
        <lane id="G2G3_0" index="0" speed="13.89" length="100.00" shape="701.60,204.00 701.60,292.80"/>
    </edge>
    <edge id="G2H2" from="G2" to="H2" priority="-1">
        <lane id="G2H2_0" index="0" speed="13.89" length="100.00" shape="707.20,198.40 792.80,198.40"/>
    </edge>
    <edge id="G3G4" from="G3" to="G4" priority="-1">
        <lane id="G3G4_0" index="0" speed="13.89" length="100.00" shape="701.60,304.00 701.60,392.80"/>
    </edge>
    <edge id="G3H3" from="G3" to="H3" priority="-1">
        <lane id="G3H3_0" index="0" speed="13.89" length="100.00" shape="707.20,298.40 792.80,298.40"/>
    </edge>
    <edge id="G4H4" from="G4" to="H4" priority="-1">
        <lane id="G4H4_0" index="0" speed="13.89" length="100.00" shape="707.20,398.40 792.80,398.40"/>
    </edge>
    <edge id="H0H1" from="H0" to="H1" priority="-1">
        <lane id="H0H1_0" index="0" speed="13.89" length="100.00" shape="801.60,1.50 801.60,92.80"/>
    </edge>
    <edge id="H0I0" from="H0" to="I0" priority="-1">
        <lane id="H0I0_0" index="0" speed="13.89" length="100.00" shape="804.70,-1.60 895.30,-1.60"/>
    </edge>
    <edge id="H1H2" from="H1" to="H2" priority="-1">
        <lane id="H1H2_0" index="0" speed="13.89" length="100.00" shape="801.60,104.00 801.60,192.80"/>
    </edge>
    <edge id="H1I1" from="H1" to="I1" priority="-1">
        <lane id="H1I1_0" index="0" speed="13.89" length="100.00" shape="807.20,98.40 892.80,98.40"/>
    </edge>
    <edge id="H2H3" from="H2" to="H3" priority="-1">
        <lane id="H2H3_0" index="0" speed="13.89" length="100.00" shape="801.60,204.00 801.60,292.80"/>
    </edge>
    <edge id="H2I2" from="H2" to="I2" priority="-1">
        <lane id="H2I2_0" index="0" speed="13.89" length="100.00" shape="807.20,198.40 892.80,198.40"/>
    </edge>
    <edge id="H3H4" from="H3" to="H4" priority="-1">
        <lane id="H3H4_0" index="0" speed="13.89" length="100.00" shape="801.60,304.00 801.60,392.80"/>
    </edge>
    <edge id="H3I3" from="H3" to="I3" priority="-1">
        <lane id="H3I3_0" index="0" speed="13.89" length="100.00" shape="807.20,298.40 892.80,298.40"/>
    </edge>
    <edge id="H4I4" from="H4" to="I4" priority="-1">
        <lane id="H4I4_0" index="0" speed="13.89" length="100.00" shape="807.20,398.40 892.80,398.40"/>
    </edge>
    <edge id="I0I1" from="I0" to="I1" priority="-1">
        <lane id="I0I1_0" index="0" speed="13.89" length="100.00" shape="901.60,1.50 901.60,92.80"/>
    </edge>
    <edge id="I0J0" from="I0" to="J0" priority="-1">
        <lane id="I0J0_0" index="0" speed="13.89" length="100.00" shape="904.70,-1.60 995.30,-1.60"/>
    </edge>
    <edge id="I1I2" from="I1" to="I2" priority="-1">
        <lane id="I1I2_0" index="0" speed="13.89" length="100.00" shape="901.60,104.00 901.60,192.80"/>
    </edge>
    <edge id="I1J1" from="I1" to="J1" priority="-1">
        <lane id="I1J1_0" index="0" speed="13.89" length="100.00" shape="907.20,98.40 992.80,98.40"/>
    </edge>
    <edge id="I2I3" from="I2" to="I3" priority="-1">
        <lane id="I2I3_0" index="0" speed="13.89" length="100.00" shape="901.60,204.00 901.60,292.80"/>
    </edge>
    <edge id="I2J2" from="I2" to="J2" priority="-1">
        <lane id="I2J2_0" index="0" speed="13.89" length="100.00" shape="907.20,198.40 992.80,198.40"/>
    </edge>
    <edge id="I3I4" from="I3" to="I4" priority="-1">
        <lane id="I3I4_0" index="0" speed="13.89" length="100.00" shape="901.60,304.00 901.60,392.80"/>
    </edge>
    <edge id="I3J3" from="I3" to="J3" priority="-1">
        <lane id="I3J3_0" index="0" speed="13.89" length="100.00" shape="907.20,298.40 992.80,298.40"/>
    </edge>
    <edge id="I4J4" from="I4" to="J4" priority="-1">
        <lane id="I4J4_0" index="0" speed="13.89" length="100.00" shape="907.20,398.40 992.80,398.40"/>
    </edge>
    <edge id="J0J1" from="J0" to="J1" priority="-1">
        <lane id="J0J1_0" index="0" speed="13.89" length="100.00" shape="1001.60,1.50 1001.60,92.80"/>
    </edge>
    <edge id="J0right0" from="J0" to="right0" priority="-1">
        <lane id="J0right0_0" index="0" speed="13.89" length="100.00" shape="1004.70,-1.60 1100.00,-1.60"/>
    </edge>
    <edge id="J1J2" from="J1" to="J2" priority="-1">
        <lane id="J1J2_0" index="0" speed="13.89" length="100.00" shape="1001.60,104.00 1001.60,192.80"/>
    </edge>
    <edge id="J1right1" from="J1" to="right1" priority="-1">
        <lane id="J1right1_0" index="0" speed="13.89" length="100.00" shape="1007.20,98.40 1100.00,98.40"/>
    </edge>
    <edge id="J2J3" from="J2" to="J3" priority="-1">
        <lane id="J2J3_0" index="0" speed="13.89" length="100.00" shape="1001.60,204.00 1001.60,292.80"/>
    </edge>
    <edge id="J2right2" from="J2" to="right2" priority="-1">
        <lane id="J2right2_0" index="0" speed="13.89" length="100.00" shape="1007.20,198.40 1100.00,198.40"/>
    </edge>
    <edge id="J3J4" from="J3" to="J4" priority="-1">
        <lane id="J3J4_0" index="0" speed="13.89" length="100.00" shape="1001.60,304.00 1001.60,392.80"/>
    </edge>
    <edge id="J3right3" from="J3" to="right3" priority="-1">
        <lane id="J3right3_0" index="0" speed="13.89" length="100.00" shape="1007.20,298.40 1100.00,298.40"/>
    </edge>
    <edge id="J4right4" from="J4" to="right4" priority="-1">
        <lane id="J4right4_0" index="0" speed="13.89" length="100.00" shape="1007.20,398.40 1100.00,398.40"/>
    </edge>
    <edge id="left0A0" from="left0" to="A0" priority="-1">
        <lane id="left0A0_0" index="0" speed="13.89" length="100.00" shape="0.00,-1.60 95.30,-1.60"/>
    </edge>
    <edge id="left1A1" from="left1" to="A1" priority="-1">
        <lane id="left1A1_0" index="0" speed="13.89" length="100.00" shape="0.00,98.40 92.80,98.40"/>
    </edge>
    <edge id="left2A2" from="left2" to="A2" priority="-1">
        <lane id="left2A2_0" index="0" speed="13.89" length="100.00" shape="0.00,198.40 92.80,198.40"/>
    </edge>
    <edge id="left3A3" from="left3" to="A3" priority="-1">
        <lane id="left3A3_0" index="0" speed="13.89" length="100.00" shape="0.00,298.40 92.80,298.40"/>
    </edge>
    <edge id="left4A4" from="left4" to="A4" priority="-1">
        <lane id="left4A4_0" index="0" speed="13.89" length="100.00" shape="0.00,398.40 92.80,398.40"/>
    </edge>

    <junction id="A0" type="priority" x="100.00" y="0.00" incLanes="-A0A1_0 left0A0_0" intLanes="" shape="96.80,1.50 103.20,1.50 103.37,0.67 103.57,0.38 103.87,0.17 104.24,0.04 104.70,0.00 104.70,-3.20 95.30,-3.20 95.30,0.00 96.13,0.17 96.43,0.37 96.63,0.67 96.76,1.04">
        <request index="0" response="110" foes="110"/>
        <request index="1" response="000" foes="001"/>
        <request index="2" response="000" foes="001"/>
    </junction>
    <junction id="A1" type="priority" x="100.00" y="100.00" incLanes="-A1A2_0 A0A1_0 left1A1_0" intLanes="" shape="96.80,104.00 103.20,104.00 103.64,101.78 104.20,101.00 104.98,100.44 105.98,100.11 107.20,100.00 107.20,96.80 104.98,96.36 104.20,95.80 103.64,95.02 103.31,94.02 103.20,92.80 96.80,92.80 96.36,95.02 95.80,95.80 95.02,96.36 94.02,96.69 92.80,96.80 92.80,100.00 95.02,100.44 95.80,101.00 96.36,101.78 96.69,102.78">
        <request index="0" response="0000000" foes="1110000"/>
        <request index="1" response="0001100" foes="1101100"/>
        <request index="2" response="0000000" foes="0100010"/>
        <request index="3" response="0000000" foes="1100010"/>
        <request index="4" response="0000001" foes="0000001"/>
        <request index="5" response="0001111" foes="0001111"/>
        <request index="6" response="0001011" foes="0001011"/>
    </junction>
    <junction id="A2" type="priority" x="100.00" y="200.00" incLanes="-A2A3_0 A1A2_0 left2A2_0" intLanes="" shape="96.80,204.00 103.20,204.00 103.64,201.78 104.20,201.00 104.98,200.44 105.98,200.11 107.20,200.00 107.20,196.80 104.98,196.36 104.20,195.80 103.64,195.02 103.31,194.02 103.20,192.80 96.80,192.80 96.36,195.02 95.80,195.80 95.02,196.36 94.02,196.69 92.80,196.80 92.80,200.00 95.02,200.44 95.80,201.00 96.36,201.78 96.69,202.78">
        <request index="0" response="0000000" foes="1110000"/>
        <request index="1" response="0001100" foes="1101100"/>
        <request index="2" response="0000000" foes="0100010"/>
        <request index="3" response="0000000" foes="1100010"/>
        <request index="4" response="0000001" foes="0000001"/>
        <request index="5" response="0001111" foes="0001111"/>
        <request index="6" response="0001011" foes="0001011"/>
    </junction>
    <junction id="A3" type="priority" x="100.00" y="300.00" incLanes="-A3A4_0 A2A3_0 left3A3_0" intLanes="" shape="96.80,304.00 103.20,304.00 103.64,301.78 104.20,301.00 104.98,300.44 105.98,300.11 107.20,300.00 107.20,296.80 104.98,296.36 104.20,295.80 103.64,295.02 103.31,294.02 103.20,292.80 96.80,292.80 96.36,295.02 95.80,295.80 95.02,296.36 94.02,296.69 92.80,296.80 92.80,300.00 95.02,300.44 95.80,301.00 96.36,301.78 96.69,302.78">
        <request index="0" response="0000000" foes="1110000"/>
        <request index="1" response="0001100" foes="1101100"/>
        <request index="2" response="0000000" foes="0100010"/>
        <request index="3" response="0000000" foes="1100010"/>
        <request index="4" response="0000001" foes="0000001"/>
        <request index="5" response="0001111" foes="0001111"/>
        <request index="6" response="0001011" foes="0001011"/>
    </junction>
    <junction id="A4" type="priority" x="100.00" y="400.00" incLanes="A3A4_0 left4A4_0" intLanes="" shape="107.20,400.00 107.20,396.80 104.98,396.36 104.20,395.80 103.64,395.02 103.31,394.02 103.20,392.80 96.80,392.80 96.36,395.02 95.80,395.80 95.02,396.36 94.02,396.69 92.80,396.80 92.80,400.00">
        <request index="0" response="000" foes="100"/>
        <request index="1" response="000" foes="000"/>
        <request index="2" response="001" foes="001"/>
    </junction>
    <junction id="B0" type="priority" x="200.00" y="0.00" incLanes="-B0B1_0 A0B0_0" intLanes="" shape="196.80,1.50 203.20,1.50 203.37,0.67 203.57,0.38 203.87,0.17 204.24,0.04 204.70,0.00 204.70,-3.20 195.30,-3.20 195.30,0.00 196.13,0.17 196.43,0.37 196.63,0.67 196.76,1.04">
        <request index="0" response="110" foes="110"/>
        <request index="1" response="000" foes="001"/>
        <request index="2" response="000" foes="001"/>
    </junction>
    <junction id="B1" type="priority" x="200.00" y="100.00" incLanes="-B1B2_0 B0B1_0 A1B1_0" intLanes="" shape="196.80,104.00 203.20,104.00 203.64,101.78 204.20,101.00 204.98,100.44 205.98,100.11 207.20,100.00 207.20,96.80 204.98,96.36 204.20,95.80 203.64,95.02 203.31,94.02 203.20,92.80 196.80,92.80 196.36,95.02 195.80,95.80 195.02,96.36 194.02,96.69 192.80,96.80 192.80,100.00 195.02,100.44 195.80,101.00 196.36,101.78 196.69,102.78">
        <request index="0" response="0000000" foes="1110000"/>
        <request index="1" response="0001100" foes="1101100"/>
        <request index="2" response="0000000" foes="0100010"/>
        <request index="3" response="0000000" foes="1100010"/>
        <request index="4" response="0000001" foes="0000001"/>
        <request index="5" response="0001111" foes="0001111"/>
        <request index="6" response="0001011" foes="0001011"/>
    </junction>
    <junction id="B2" type="priority" x="200.00" y="200.00" incLanes="-B2B3_0 B1B2_0 A2B2_0" intLanes="" shape="196.80,204.00 203.20,204.00 203.64,201.78 204.20,201.00 204.98,200.44 205.98,200.11 207.20,200.00 207.20,196.80 204.98,196.36 204.20,195.80 203.64,195.02 203.31,194.02 203.20,192.80 196.80,192.80 196.36,195.02 195.80,195.80 195.02,196.36 194.02,196.69 192.80,196.80 192.80,200.00 195.02,200.44 195.80,201.00 196.36,201.78 196.69,202.78">
        <request index="0" response="0000000" foes="1110000"/>
        <request index="1" response="0001100" foes="1101100"/>
        <request index="2" response="0000000" foes="0100010"/>
        <request index="3" response="0000000" foes="1100010"/>