<routes>
	<vtype id="DEFAULT_VEHTYPE" accel="2.6" decel="4.5" sigma="0" length="5" maxspeed="13.89"/>

	<vehicle id="0" depart="0" departspeed="13.89">
		<route edges="beg beg2right right right2end end rend"/>
	</vehicle>
	<vehicle id="1" depart="20" departspeed="13.89">
		<route edges="beg beg2right right right2end end rend"/>
	</vehicle>
	<vehicle id="2" depart="40" departspeed="13.89">
		<route edges="beg beg2right right right2end end rend"/>
	</vehicle>
	<vehicle id="3" depart="60" departspeed="13.89">
		<route edges="beg beg2right right right2end end rend"/>
	</vehicle>
	<vehicle id="4" depart="80" departspeed="13.89">
		<route edges="beg beg2right right right2end end rend"/>
	</vehicle>
	<vehicle id="5" depart="100" departspeed="13.89">
		<route edges="beg beg2right right right2end end rend"/>
	</vehicle>
	<vehicle id="6" depart="120" departspeed="13.89">
		<route edges="beg beg2right right right2end end rend"/>
	</vehicle>
	<vehicle id="7" depart="140" departspeed="13.89">
		<route edges="beg beg2right right right2end end rend"/>
	</vehicle>
	<vehicle id="8" depart="160" departspeed="13.89">
		<route edges="beg beg2right right right2end end rend"/>
	</vehicle>
	<vehicle id="9" depart="180" departspeed="13.89">
		<route edges="beg beg2right right right2end end rend"/>
	</vehicle>


</routes>
