<?xml version="1.0" encoding="UTF-8"?>

<!-- generated on Wed Oct  4 13:27:41 2017 by SUMO netconvert Version dev-SVN-r26311
<?xml version="1.0" encoding="UTF-8"?>

<configuration xmlns:xsi="http://www.w3.org/2001/XMLSchema-instance" xsi:noNamespaceSchemaLocation="http://sumo.dlr.de/xsd/netconvertConfiguration.xsd">

    <input>
        <osm-files value="osm.xml"/>
    </input>

    <output>
        <output-file value="net.net.xml"/>
        <opendrive-output value="foreign.net"/>
        <output.original-names value="true"/>
    </output>

    <projection>
        <proj.utm value="true"/>
        <proj.plain-geo value="true"/>
    </projection>

    <processing>
        <rectangular-lane-cut value="true"/>
    </processing>

    <report>
        <verbose value="true"/>
        <xml-validation value="never"/>
    </report>

</configuration>
-->

<net version="0.27" rectangularLaneCut="true" xmlns:xsi="http://www.w3.org/2001/XMLSchema-instance" xsi:noNamespaceSchemaLocation="http://sumo.dlr.de/xsd/net_file.xsd">

    <location netOffset="-399345.66,-5809365.64" convBoundary="0.00,0.00,1737.68,767.39" origBoundary="13.364829,52.424764,13.574340,52.459643" projParameter="+proj=utm +zone=33 +ellps=WGS84 +datum=WGS84 +units=m +no_defs"/>

    <type id="highway.bridleway" priority="1" numLanes="1" speed="2.78" allow="pedestrian" oneway="1" width="2.00"/>
    <type id="highway.bus_guideway" priority="1" numLanes="1" speed="8.33" allow="bus" oneway="1"/>
    <type id="highway.cycleway" priority="1" numLanes="1" speed="5.56" allow="bicycle" oneway="0" width="1.00"/>
    <type id="highway.footway" priority="1" numLanes="1" speed="2.78" allow="pedestrian" oneway="1" width="2.00"/>
    <type id="highway.ford" priority="1" numLanes="1" speed="2.78" allow="army" oneway="0"/>
    <type id="highway.living_street" priority="3" numLanes="1" speed="2.78" disallow="tram rail_urban rail rail_electric ship" oneway="0"/>
    <type id="highway.motorway" priority="13" numLanes="2" speed="44.44" allow="private emergency authority army vip passenger hov taxi bus coach delivery truck trailer motorcycle evehicle custom1 custom2" oneway="1"/>
    <type id="highway.motorway_link" priority="12" numLanes="1" speed="22.22" allow="private emergency authority army vip passenger hov taxi bus coach delivery truck trailer motorcycle evehicle custom1 custom2" oneway="1"/>
    <type id="highway.path" priority="1" numLanes="1" speed="2.78" allow="bicycle pedestrian" oneway="1" width="2.00"/>
    <type id="highway.pedestrian" priority="1" numLanes="1" speed="2.78" allow="pedestrian" oneway="1" width="2.00"/>
    <type id="highway.primary" priority="9" numLanes="2" speed="27.78" disallow="tram rail_urban rail rail_electric ship" oneway="0"/>
    <type id="highway.primary_link" priority="8" numLanes="1" speed="22.22" disallow="tram rail_urban rail rail_electric ship" oneway="0"/>
    <type id="highway.raceway" priority="14" numLanes="2" speed="83.33" allow="vip" oneway="0"/>
    <type id="highway.residential" priority="4" numLanes="1" speed="13.89" disallow="tram rail_urban rail rail_electric ship" oneway="0"/>
    <type id="highway.secondary" priority="7" numLanes="2" speed="27.78" disallow="tram rail_urban rail rail_electric ship" oneway="0"/>
    <type id="highway.secondary_link" priority="6" numLanes="1" speed="22.22" disallow="tram rail_urban rail rail_electric ship" oneway="0"/>
    <type id="highway.service" priority="2" numLanes="1" speed="5.56" allow="delivery bicycle pedestrian" oneway="0"/>
    <type id="highway.services" priority="1" numLanes="1" speed="8.33" disallow="tram rail_urban rail rail_electric ship" oneway="0"/>
    <type id="highway.stairs" priority="1" numLanes="1" speed="1.39" allow="pedestrian" oneway="1" width="2.00"/>
    <type id="highway.step" priority="1" numLanes="1" speed="1.39" allow="pedestrian" oneway="1" width="2.00"/>
    <type id="highway.steps" priority="1" numLanes="1" speed="1.39" allow="pedestrian" oneway="1" width="2.00"/>
    <type id="highway.tertiary" priority="6" numLanes="1" speed="22.22" disallow="tram rail_urban rail rail_electric ship" oneway="0"/>
    <type id="highway.tertiary_link" priority="5" numLanes="1" speed="22.22" disallow="tram rail_urban rail rail_electric ship" oneway="0"/>
    <type id="highway.track" priority="1" numLanes="1" speed="5.56" disallow="tram rail_urban rail rail_electric ship" oneway="0"/>
    <type id="highway.trunk" priority="11" numLanes="2" speed="27.78" disallow="tram rail_urban rail rail_electric bicycle pedestrian ship" oneway="0"/>
    <type id="highway.trunk_link" priority="10" numLanes="1" speed="22.22" disallow="tram rail_urban rail rail_electric bicycle pedestrian ship" oneway="0"/>
    <type id="highway.unclassified" priority="5" numLanes="1" speed="13.89" disallow="tram rail_urban rail rail_electric ship" oneway="0"/>
    <type id="highway.unsurfaced" priority="1" numLanes="1" speed="8.33" disallow="tram rail_urban rail rail_electric ship" oneway="0"/>
    <type id="railway.light_rail" priority="15" numLanes="1" speed="27.78" allow="rail_urban" oneway="1"/>
    <type id="railway.preserved" priority="15" numLanes="1" speed="27.78" allow="rail" oneway="1"/>
    <type id="railway.rail" priority="15" numLanes="1" speed="83.33" allow="rail rail_electric" oneway="1"/>
    <type id="railway.subway" priority="15" numLanes="1" speed="27.78" allow="rail_urban" oneway="1"/>
    <type id="railway.tram" priority="15" numLanes="1" speed="13.89" allow="tram" oneway="1"/>

    <edge id=":175648134_0" function="internal">
        <lane id=":175648134_0_0" index="0" allow="bicycle" speed="5.56" length="1.61" width="1.00" shape="15.75,168.61 15.30,168.39 15.13,168.14 15.23,167.85 15.61,167.52"/>
    </edge>
    <edge id=":261599791_0" function="internal">
        <lane id=":261599791_0_0" index="0" disallow="tram rail_urban rail rail_electric ship" speed="27.78" length="0.24" shape="34.74,181.46 34.53,181.49"/>
        <lane id=":261599791_0_1" index="1" disallow="tram rail_urban rail rail_electric ship" speed="27.78" length="0.24" shape="34.32,178.19 34.06,178.22"/>
    </edge>
    <edge id=":261599791_2" function="internal">
        <lane id=":261599791_2_0" index="0" disallow="tram rail_urban rail rail_electric ship" speed="27.78" length="2.41" shape="34.32,178.19 32.99,177.53 32.48,176.76"/>
    </edge>
    <edge id=":261599791_6" function="internal">
        <lane id=":261599791_6_0" index="0" speed="27.78" length="2.41" shape="32.48,176.76 32.78,175.89 33.91,174.91"/>
    </edge>
    <edge id=":261599791_3" function="internal">
        <lane id=":261599791_3_0" index="0" disallow="tram rail_urban rail rail_electric ship" speed="27.78" length="0.34" shape="33.13,171.69 33.49,171.64"/>
        <lane id=":261599791_3_1" index="1" disallow="tram rail_urban rail rail_electric ship" speed="27.78" length="0.34" shape="33.59,174.96 33.91,174.91"/>
    </edge>
    <edge id=":261599791_5" function="internal">
        <lane id=":261599791_5_0" index="0" disallow="tram rail_urban rail rail_electric ship" speed="27.78" length="2.41" shape="33.59,174.96 34.94,175.60 35.46,176.36"/>
    </edge>
    <edge id=":261599791_7" function="internal">
        <lane id=":261599791_7_0" index="0" speed="27.78" length="2.41" shape="35.46,176.36 35.17,177.23 34.06,178.22"/>
    </edge>
    <edge id=":261636677_0" function="internal">
        <lane id=":261636677_0_0" index="0" disallow="tram rail_urban rail rail_electric ship" speed="13.89" length="5.46" shape="1124.74,113.88 1123.18,114.08 1122.15,114.49 1121.23,115.18 1119.99,116.22"/>
    </edge>
    <edge id=":261636677_1" function="internal">
        <lane id=":261636677_1_0" index="0" disallow="tram rail_urban rail rail_electric ship" speed="13.89" length="4.39" shape="1124.74,113.88 1122.60,113.74 1121.02,113.02 1120.71,112.62"/>
    </edge>
    <edge id=":261636677_4" function="internal">
        <lane id=":261636677_4_0" index="0" speed="13.89" length="3.07" shape="1120.71,112.62 1120.01,111.72 1119.56,109.85"/>
    </edge>
    <edge id=":261636677_2" function="internal">
        <lane id=":261636677_2_0" index="0" disallow="tram rail_urban rail rail_electric ship" speed="13.89" length="4.32" shape="1117.92,113.65 1118.70,112.86 1119.24,111.96 1119.52,110.96 1119.56,109.85"/>
    </edge>
    <edge id=":261636677_3" function="internal">
        <lane id=":261636677_3_0" index="0" disallow="tram rail_urban rail rail_electric ship" speed="13.89" length="2.41" shape="1117.92,113.65 1119.40,113.52 1120.24,113.90"/>
    </edge>
    <edge id=":261636677_5" function="internal">
        <lane id=":261636677_5_0" index="0" speed="13.89" length="2.41" shape="1120.24,113.90 1120.43,114.80 1119.99,116.22"/>
    </edge>
    <edge id=":261636678_0" function="internal">
        <lane id=":261636678_0_0" index="0" disallow="tram rail_urban rail rail_electric ship" speed="20.84" length="4.99" shape="1115.78,61.13 1115.48,59.79 1114.83,58.86 1113.84,58.33 1112.49,58.21"/>
    </edge>
    <edge id=":261636678_1" function="internal">
        <lane id=":261636678_1_0" index="0" disallow="tram rail_urban rail rail_electric ship" speed="20.84" length="10.83" shape="1115.78,61.13 1115.64,56.89 1115.96,53.82 1116.76,51.93 1118.02,51.21"/>
    </edge>
    <edge id=":261636678_2" function="internal">
        <lane id=":261636678_2_0" index="0" disallow="tram rail_urban rail rail_electric ship" speed="27.78" length="6.07" shape="1118.61,57.78 1112.49,58.21"/>
        <lane id=":261636678_2_1" index="1" disallow="tram rail_urban rail rail_electric ship" speed="27.78" length="6.07" shape="1118.31,54.49 1112.33,54.91"/>
    </edge>
    <edge id=":261636678_4" function="internal">
        <lane id=":261636678_4_0" index="0" disallow="tram rail_urban rail rail_electric ship" speed="27.78" length="2.41" shape="1118.31,54.49 1117.01,53.78 1116.52,53.00"/>
    </edge>
    <edge id=":261636678_8" function="internal">
        <lane id=":261636678_8_0" index="0" speed="27.78" length="2.41" shape="1116.52,53.00 1116.86,52.14 1118.02,51.21"/>
    </edge>
    <edge id=":261636678_5" function="internal">
        <lane id=":261636678_5_0" index="0" disallow="tram rail_urban rail rail_electric ship" speed="27.78" length="5.80" shape="1112.00,48.32 1117.72,47.92"/>
        <lane id=":261636678_5_1" index="1" disallow="tram rail_urban rail rail_electric ship" speed="27.78" length="5.80" shape="1112.16,51.61 1118.02,51.21"/>
    </edge>
    <edge id=":261636678_7" function="internal">
        <lane id=":261636678_7_0" index="0" disallow="tram rail_urban rail rail_electric ship" speed="27.78" length="2.41" shape="1112.16,51.61 1113.44,52.38 1113.89,53.18"/>
    </edge>
    <edge id=":261636678_9" function="internal">
        <lane id=":261636678_9_0" index="0" speed="27.78" length="2.41" shape="1113.89,53.18 1113.52,54.03 1112.33,54.91"/>
    </edge>
    <edge id=":261647692_0" function="internal">
        <lane id=":261647692_0_0" index="0" disallow="tram rail_urban rail rail_electric ship" speed="22.22" length="0.30" shape="491.17,281.38 491.15,281.08"/>
    </edge>
    <edge id=":261647692_1" function="internal">
        <lane id=":261647692_1_0" index="0" disallow="tram rail_urban rail rail_electric ship" speed="22.22" length="2.41" shape="491.17,281.38 491.89,280.08 492.67,279.60"/>
    </edge>
    <edge id=":261647692_4" function="internal">
        <lane id=":261647692_4_0" index="0" speed="22.22" length="2.41" shape="492.67,279.60 493.53,279.94 494.46,281.10"/>
    </edge>
    <edge id=":261647692_2" function="internal">
        <lane id=":261647692_2_0" index="0" disallow="tram rail_urban rail rail_electric ship" speed="22.22" length="0.30" shape="494.43,280.80 494.46,281.10"/>
    </edge>
    <edge id=":261647692_3" function="internal">
        <lane id=":261647692_3_0" index="0" disallow="tram rail_urban rail rail_electric ship" speed="22.22" length="2.41" shape="494.43,280.80 493.72,282.10 492.93,282.58"/>
    </edge>
    <edge id=":261647692_5" function="internal">
        <lane id=":261647692_5_0" index="0" speed="22.22" length="2.41" shape="492.93,282.58 492.08,282.24 491.15,281.08"/>
    </edge>
    <edge id=":261647702_0" function="internal">
        <lane id=":261647702_0_0" index="0" disallow="tram rail_urban rail rail_electric ship" speed="22.22" length="0.30" shape="481.35,167.69 481.33,167.39"/>
    </edge>
    <edge id=":261647702_1" function="internal">
        <lane id=":261647702_1_0" index="0" disallow="tram rail_urban rail rail_electric ship" speed="22.22" length="2.41" shape="481.35,167.69 482.07,166.38 482.85,165.90"/>
    </edge>
    <edge id=":261647702_4" function="internal">
        <lane id=":261647702_4_0" index="0" speed="22.22" length="2.41" shape="482.85,165.90 483.71,166.24 484.64,167.40"/>
    </edge>
    <edge id=":261647702_2" function="internal">
        <lane id=":261647702_2_0" index="0" disallow="tram rail_urban rail rail_electric ship" speed="22.22" length="0.30" shape="484.61,167.10 484.64,167.40"/>
    </edge>
    <edge id=":261647702_3" function="internal">
        <lane id=":261647702_3_0" index="0" disallow="tram rail_urban rail rail_electric ship" speed="22.22" length="2.41" shape="484.61,167.10 483.90,168.41 483.11,168.89"/>
    </edge>
    <edge id=":261647702_5" function="internal">
        <lane id=":261647702_5_0" index="0" speed="22.22" length="2.41" shape="483.11,168.89 482.26,168.55 481.33,167.39"/>
    </edge>
    <edge id=":283018817_0" function="internal">
        <lane id=":283018817_0_0" index="0" disallow="tram rail_urban rail rail_electric ship" speed="13.89" length="5.18" shape="611.83,550.52 614.47,546.06"/>
    </edge>
    <edge id=":283018845_0" function="internal">
        <lane id=":283018845_0_0" index="0" disallow="tram rail_urban rail rail_electric ship" speed="13.89" length="9.39" shape="373.61,464.57 364.49,462.30"/>
    </edge>
    <edge id=":283018845_1" function="internal">
        <lane id=":283018845_1_0" index="0" disallow="tram rail_urban rail rail_electric ship" speed="13.89" length="2.41" shape="373.61,464.57 372.61,463.47 372.41,462.57"/>
    </edge>
    <edge id=":283018845_4" function="internal">
        <lane id=":283018845_4_0" index="0" speed="13.89" length="2.41" shape="372.41,462.57 373.01,461.87 374.41,461.37"/>
    </edge>
    <edge id=":283018845_2" function="internal">
        <lane id=":283018845_2_0" index="0" disallow="tram rail_urban rail rail_electric ship" speed="13.89" length="9.40" shape="365.29,459.10 374.41,461.37"/>
    </edge>
    <edge id=":283018845_3" function="internal">
        <lane id=":283018845_3_0" index="0" disallow="tram rail_urban rail rail_electric ship" speed="13.89" length="2.41" shape="365.29,459.10 366.29,460.20 366.49,461.10"/>
    </edge>
    <edge id=":283018845_5" function="internal">
        <lane id=":283018845_5_0" index="0" speed="13.89" length="2.41" shape="366.49,461.10 365.89,461.80 364.49,462.30"/>
    </edge>
    <edge id=":283018932_0" function="internal">
        <lane id=":283018932_0_0" index="0" disallow="tram rail_urban rail rail_electric ship" speed="13.89" length="5.23" shape="414.46,474.72 409.39,473.46"/>
    </edge>
    <edge id=":283018932_1" function="internal">
        <lane id=":283018932_1_0" index="0" disallow="tram rail_urban rail rail_electric ship" speed="13.89" length="2.41" shape="414.46,474.72 413.46,473.62 413.26,472.72"/>
    </edge>
    <edge id=":283018932_4" function="internal">
        <lane id=":283018932_4_0" index="0" speed="13.89" length="2.41" shape="413.26,472.72 413.86,472.02 415.26,471.52"/>
    </edge>
    <edge id=":283018932_2" function="internal">
        <lane id=":283018932_2_0" index="0" disallow="tram rail_urban rail rail_electric ship" speed="13.89" length="5.23" shape="410.19,470.26 415.26,471.52"/>
    </edge>
    <edge id=":283018932_3" function="internal">
        <lane id=":283018932_3_0" index="0" disallow="tram rail_urban rail rail_electric ship" speed="13.89" length="2.41" shape="410.19,470.26 411.19,471.36 411.39,472.26"/>
    </edge>
    <edge id=":283018932_5" function="internal">
        <lane id=":283018932_5_0" index="0" speed="13.89" length="2.41" shape="411.39,472.26 410.79,472.96 409.39,473.46"/>
    </edge>
    <edge id=":283018933_0" function="internal">
        <lane id=":283018933_0_0" index="0" disallow="tram rail_urban rail rail_electric ship" speed="13.89" length="5.00" shape="539.03,511.31 534.36,509.54"/>
    </edge>
    <edge id=":283018933_1" function="internal">
        <lane id=":283018933_1_0" index="0" disallow="tram rail_urban rail rail_electric ship" speed="13.89" length="2.41" shape="539.03,511.31 538.17,510.10 538.08,509.18"/>
    </edge>
    <edge id=":283018933_4" function="internal">
        <lane id=":283018933_4_0" index="0" speed="13.89" length="2.41" shape="538.08,509.18 538.75,508.56 540.20,508.23"/>
    </edge>
    <edge id=":283018933_2" function="internal">
        <lane id=":283018933_2_0" index="0" disallow="tram rail_urban rail rail_electric ship" speed="13.89" length="5.00" shape="535.53,506.45 540.20,508.23"/>
    </edge>
    <edge id=":283018933_3" function="internal">
        <lane id=":283018933_3_0" index="0" disallow="tram rail_urban rail rail_electric ship" speed="13.89" length="2.41" shape="535.53,506.45 536.39,507.66 536.48,508.58"/>
    </edge>
    <edge id=":283018933_5" function="internal">
        <lane id=":283018933_5_0" index="0" speed="13.89" length="2.41" shape="536.48,508.58 535.81,509.21 534.36,509.54"/>
    </edge>
    <edge id=":283719736_0" function="internal">
        <lane id=":283719736_0_0" index="0" disallow="tram rail_urban rail rail_electric ship" speed="13.89" length="7.18" shape="1053.81,523.65 1048.31,519.05"/>
    </edge>
    <edge id=":283719736_1" function="internal">
        <lane id=":283719736_1_0" index="0" disallow="tram rail_urban rail rail_electric ship" speed="13.89" length="2.41" shape="1053.81,523.65 1053.39,522.22 1053.61,521.33"/>
    </edge>
    <edge id=":283719736_4" function="internal">
        <lane id=":283719736_4_0" index="0" speed="13.89" length="2.41" shape="1053.61,521.33 1054.45,520.96 1055.93,521.12"/>
    </edge>
    <edge id=":283719736_2" function="internal">
        <lane id=":283719736_2_0" index="0" disallow="tram rail_urban rail rail_electric ship" speed="13.89" length="7.18" shape="1050.42,516.51 1055.93,521.12"/>
    </edge>
    <edge id=":283719736_3" function="internal">
        <lane id=":283719736_3_0" index="0" disallow="tram rail_urban rail rail_electric ship" speed="13.89" length="2.41" shape="1050.42,516.51 1050.84,517.94 1050.63,518.84"/>
    </edge>
    <edge id=":283719736_5" function="internal">
        <lane id=":283719736_5_0" index="0" speed="13.89" length="2.41" shape="1050.63,518.84 1049.78,519.21 1048.31,519.05"/>
    </edge>
    <edge id=":283719904_0" function="internal">
        <lane id=":283719904_0_0" index="0" disallow="tram rail_urban rail rail_electric ship" speed="13.89" length="4.73" shape="936.52,553.06 933.34,556.56"/>
    </edge>
    <edge id=":283719904_1" function="internal">
        <lane id=":283719904_1_0" index="0" disallow="tram rail_urban rail rail_electric ship" speed="13.89" length="2.41" shape="936.52,553.06 935.08,553.45 934.19,553.21"/>
    </edge>
    <edge id=":283719904_4" function="internal">
        <lane id=":283719904_4_0" index="0" speed="13.89" length="2.41" shape="934.19,553.21 933.84,552.36 934.04,550.89"/>
    </edge>
    <edge id=":283719904_2" function="internal">
        <lane id=":283719904_2_0" index="0" disallow="tram rail_urban rail rail_electric ship" speed="13.89" length="4.94" shape="930.72,554.55 934.04,550.89"/>
    </edge>
    <edge id=":283719904_3" function="internal">
        <lane id=":283719904_3_0" index="0" disallow="tram rail_urban rail rail_electric ship" speed="13.89" length="2.60" shape="930.72,554.55 932.13,554.07 933.04,554.25 933.12,554.42"/>
    </edge>
    <edge id=":283719904_5" function="internal">
        <lane id=":283719904_5_0" index="0" speed="13.89" length="2.21" shape="933.12,554.42 933.44,555.08 933.34,556.56"/>
    </edge>
    <edge id=":283720461_0" function="internal">
        <lane id=":283720461_0_0" index="0" disallow="tram rail_urban rail rail_electric ship" speed="13.89" length="5.00" shape="1022.25,497.27 1018.41,494.07"/>
    </edge>
    <edge id=":283720461_1" function="internal">
        <lane id=":283720461_1_0" index="0" disallow="tram rail_urban rail rail_electric ship" speed="13.89" length="2.41" shape="1022.25,497.27 1021.83,495.85 1022.04,494.95"/>
    </edge>
    <edge id=":283720461_4" function="internal">
        <lane id=":283720461_4_0" index="0" speed="13.89" length="2.41" shape="1022.04,494.95 1022.89,494.58 1024.37,494.74"/>
    </edge>
    <edge id=":283720461_2" function="internal">
        <lane id=":283720461_2_0" index="0" disallow="tram rail_urban rail rail_electric ship" speed="13.89" length="5.00" shape="1020.53,491.53 1024.37,494.74"/>
    </edge>
    <edge id=":283720461_3" function="internal">
        <lane id=":283720461_3_0" index="0" disallow="tram rail_urban rail rail_electric ship" speed="13.89" length="2.41" shape="1020.53,491.53 1020.95,492.96 1020.73,493.86"/>
    </edge>
    <edge id=":283720461_5" function="internal">
        <lane id=":283720461_5_0" index="0" speed="13.89" length="2.41" shape="1020.73,493.86 1019.89,494.23 1018.41,494.07"/>
    </edge>
    <edge id=":283721348_0" function="internal">
        <lane id=":283721348_0_0" index="0" disallow="tram rail_urban rail rail_electric ship" speed="13.89" length="5.18" shape="999.86,484.80 996.33,488.60"/>
    </edge>
    <edge id=":283721348_1" function="internal">
        <lane id=":283721348_1_0" index="0" disallow="tram rail_urban rail rail_electric ship" speed="13.89" length="2.41" shape="999.86,484.80 998.41,485.14 997.52,484.88"/>
    </edge>
    <edge id=":283721348_4" function="internal">
        <lane id=":283721348_4_0" index="0" speed="13.89" length="2.41" shape="997.52,484.88 997.20,484.02 997.44,482.55"/>
    </edge>
    <edge id=":283721348_2" function="internal">
        <lane id=":283721348_2_0" index="0" disallow="tram rail_urban rail rail_electric ship" speed="13.89" length="5.18" shape="993.91,486.35 997.44,482.55"/>
    </edge>
    <edge id=":283721348_3" function="internal">
        <lane id=":283721348_3_0" index="0" disallow="tram rail_urban rail rail_electric ship" speed="13.89" length="2.41" shape="993.91,486.35 995.36,486.01 996.24,486.27"/>
    </edge>
    <edge id=":283721348_5" function="internal">
        <lane id=":283721348_5_0" index="0" speed="13.89" length="2.41" shape="996.24,486.27 996.56,487.13 996.33,488.60"/>
    </edge>
    <edge id=":294168098_0" function="internal">
        <lane id=":294168098_0_0" index="0" allow="delivery bicycle pedestrian" speed="5.56" length="6.67" shape="567.13,324.51 565.73,323.47 564.23,322.82 562.65,322.56 560.96,322.69"/>
    </edge>
    <edge id=":294168098_1" function="internal">
        <lane id=":294168098_1_0" index="0" allow="delivery bicycle pedestrian" speed="5.56" length="16.61" shape="567.13,324.51 564.49,321.54 562.09,317.98 559.89,314.25 557.86,310.79"/>
    </edge>
    <edge id=":294168098_2" function="internal">
        <lane id=":294168098_2_0" index="0" allow="delivery bicycle pedestrian" speed="5.56" length="23.83" shape="567.13,324.51 563.86,320.10 563.00,315.08 564.55,309.44 568.51,303.19"/>
    </edge>
    <edge id=":294168098_3" function="internal">
        <lane id=":294168098_3_0" index="0" allow="delivery bicycle pedestrian" speed="5.56" length="4.82" shape="567.13,324.51 566.77,323.06 567.02,322.17 567.88,321.84 569.35,322.07"/>
    </edge>
    <edge id=":294168098_4" function="internal">
        <lane id=":294168098_4_0" index="0" allow="delivery bicycle pedestrian" speed="5.56" length="18.81" shape="571.11,305.24 567.83,310.30 566.45,314.80 566.95,318.72 569.35,322.07"/>
    </edge>
    <edge id=":294168098_5" function="internal">
        <lane id=":294168098_5_0" index="0" allow="delivery bicycle pedestrian" speed="5.56" length="20.55" shape="571.11,305.24 568.91,309.49 566.72,315.09 564.19,320.12 560.96,322.69"/>
    </edge>
    <edge id=":294168098_6" function="internal">
        <lane id=":294168098_6_0" index="0" allow="delivery bicycle pedestrian" speed="5.56" length="16.95" shape="571.11,305.24 566.76,310.04 563.11,312.57 560.14,312.81 557.86,310.79"/>
    </edge>
    <edge id=":294168098_7" function="internal">
        <lane id=":294168098_7_0" index="0" allow="delivery bicycle pedestrian" speed="5.56" length="4.82" shape="571.11,305.24 569.69,305.70 568.79,305.51 568.40,304.68 568.51,303.19"/>
    </edge>
    <edge id=":294168098_8" function="internal">
        <lane id=":294168098_8_0" index="0" allow="delivery bicycle pedestrian" speed="5.56" length="10.57" shape="560.67,309.06 561.69,309.56 563.33,308.74 565.61,306.62 568.51,303.19"/>
    </edge>
    <edge id=":294168098_9" function="internal">
        <lane id=":294168098_9_0" index="0" allow="delivery bicycle pedestrian" speed="5.56" length="15.70" shape="560.67,309.06 562.61,312.42 564.61,315.90 566.81,319.21 569.35,322.07"/>
    </edge>
    <edge id=":294168098_10" function="internal">
        <lane id=":294168098_10_0" index="0" allow="delivery bicycle pedestrian" speed="5.56" length="16.22" shape="560.67,309.06 563.51,314.51 564.50,318.60 563.65,321.32 560.96,322.69"/>
    </edge>
    <edge id=":294168098_11" function="internal">
        <lane id=":294168098_11_0" index="0" allow="delivery bicycle pedestrian" speed="5.56" length="4.82" shape="560.67,309.06 560.61,310.55 560.13,311.33 559.21,311.41 557.86,310.79"/>
    </edge>
    <edge id=":294168710_0" function="internal">
        <lane id=":294168710_0_0" index="0" allow="delivery bicycle pedestrian" speed="5.56" length="6.20" shape="586.66,342.38 582.08,338.19"/>
    </edge>
    <edge id=":294168710_1" function="internal">
        <lane id=":294168710_1_0" index="0" allow="delivery bicycle pedestrian" speed="5.56" length="4.82" shape="586.66,342.38 586.30,340.94 586.55,340.05 587.41,339.72 588.88,339.95"/>
    </edge>
    <edge id=":294168710_2" function="internal">
        <lane id=":294168710_2_0" index="0" allow="delivery bicycle pedestrian" speed="5.56" length="6.20" shape="584.31,335.76 588.88,339.95"/>
    </edge>
    <edge id=":294168710_3" function="internal">
        <lane id=":294168710_3_0" index="0" allow="delivery bicycle pedestrian" speed="5.56" length="4.82" shape="584.31,335.76 584.67,337.20 584.41,338.09 583.55,338.42 582.08,338.19"/>
    </edge>
    <edge id=":294168710_4" function="internal">
        <lane id=":294168710_4_0" index="0" allow="delivery bicycle pedestrian" speed="5.56" length="5.04" shape="582.19,342.58 583.02,341.46 583.27,340.36 582.96,339.27 582.08,338.19"/>
    </edge>
    <edge id=":294168710_5" function="internal">
        <lane id=":294168710_5_0" index="0" allow="delivery bicycle pedestrian" speed="5.56" length="7.85" shape="582.19,342.58 584.31,340.69 586.13,339.62 587.66,339.37 588.88,339.95"/>
    </edge>
    <edge id=":294168972_0" function="internal">
        <lane id=":294168972_0_0" index="0" allow="delivery bicycle pedestrian" speed="9.73" length="5.09" shape="717.41,230.32 716.27,229.59 715.14,229.41 714.03,229.77 712.94,230.68"/>
    </edge>
    <edge id=":294168972_1" function="internal">
        <lane id=":294168972_1_0" index="0" disallow="tram rail_urban rail rail_electric ship" speed="13.89" length="9.50" shape="717.41,230.32 710.25,224.08"/>
    </edge>
    <edge id=":294168972_2" function="internal">
        <lane id=":294168972_2_0" index="0" disallow="tram rail_urban rail rail_electric ship" speed="13.89" length="2.41" shape="717.41,230.32 717.02,228.89 717.25,228.00"/>
    </edge>
    <edge id=":294168972_9" function="internal">
        <lane id=":294168972_9_0" index="0" speed="13.89" length="2.41" shape="717.25,228.00 718.10,227.65 719.58,227.84"/>
    </edge>
    <edge id=":294168972_3" function="internal">
        <lane id=":294168972_3_0" index="0" disallow="tram rail_urban rail rail_electric ship" speed="13.89" length="9.50" shape="712.42,221.59 719.58,227.84"/>
    </edge>
    <edge id=":294168972_4" function="internal">
        <lane id=":294168972_4_0" index="0" allow="delivery bicycle pedestrian" speed="9.73" length="5.22" shape="712.42,221.59 714.29,223.77 715.00,226.00"/>
    </edge>
    <edge id=":294168972_5" function="internal">
        <lane id=":294168972_5_0" index="0" disallow="tram rail_urban rail rail_electric ship" speed="13.89" length="2.41" shape="712.42,221.59 712.81,223.03 712.58,223.92"/>
    </edge>
    <edge id=":294168972_10" function="internal">
        <lane id=":294168972_10_0" index="0" speed="9.73" length="5.22" shape="715.00,226.00 714.55,228.31 712.94,230.68"/>
    </edge>
    <edge id=":294168972_11" function="internal">
        <lane id=":294168972_11_0" index="0" speed="13.89" length="2.41" shape="712.58,223.92 711.72,224.27 710.25,224.08"/>
    </edge>
    <edge id=":294168972_6" function="internal">
        <lane id=":294168972_6_0" index="0" disallow="tram rail_urban rail rail_electric ship" speed="9.73" length="5.03" shape="710.50,228.46 711.28,227.32 711.49,226.21 711.15,225.13 710.25,224.08"/>
    </edge>
    <edge id=":294168972_7" function="internal">
        <lane id=":294168972_7_0" index="0" disallow="tram rail_urban rail rail_electric ship" speed="9.73" length="10.33" shape="710.50,228.46 712.69,226.64 714.94,225.93 717.23,226.32 719.58,227.84"/>
    </edge>
    <edge id=":294168972_8" function="internal">
        <lane id=":294168972_8_0" index="0" allow="delivery bicycle pedestrian" speed="5.56" length="4.82" shape="710.50,228.46 711.94,228.10 712.83,228.35 713.16,229.21 712.94,230.68"/>
    </edge>
    <edge id=":294169338_0" function="internal">