<?xml version="1.0" encoding="UTF-8"?>

<!-- generated on 16.11.2018 13:38:10 by Eclipse SUMO netedit Version v1_0_0+0907-4934d005c3
<configuration xmlns:xsi="http://www.w3.org/2001/XMLSchema-instance" xsi:noNamespaceSchemaLocation="http://sumo.dlr.de/xsd/netconvertConfiguration.xsd">

    <input>
        <sumo-net-file value="C:/Users/alva_pa/.texttest/tmp/netedit.gui.16Nov133029.9208/netedit.gui/additionalElements/containerstop/load/genericparameters\input_net.net.xml"/>
    </input>

    <output>
        <output-file value="C:/Users/alva_pa/.texttest/tmp/netedit.gui.16Nov133029.9208/netedit.gui/additionalElements/containerstop/load/genericparameters\net.net.xml"/>
    </output>

    <processing>
        <offset.disable-normalization value="true"/>
        <lefthand value="false"/>
    </processing>

    <junctions>
        <no-turnarounds value="true"/>
        <junctions.corner-detail value="5"/>
        <junctions.limit-turn-speed value="5.5"/>
        <rectangular-lane-cut value="false"/>
    </junctions>

    <pedestrian>
        <walkingareas value="false"/>
    </pedestrian>

    <netedit>
        <sumo-additionals-file value="C:/Users/alva_pa/.texttest/tmp/netedit.gui.16Nov133029.9208/netedit.gui/additionalElements/containerstop/load/genericparameters\input_additionals.add.xml"/>
        <additionals-output value="C:/Users/alva_pa/.texttest/tmp/netedit.gui.16Nov133029.9208/netedit.gui/additionalElements/containerstop/load/genericparameters\additionals.xml"/>
        <shapes-output value="C:/Users/alva_pa/.texttest/tmp/netedit.gui.16Nov133029.9208/netedit.gui/additionalElements/containerstop/load/genericparameters\shapes.xml"/>
    </netedit>

    <visualisation>
        <gui-settings-file value="C:/Users/alva_pa/.texttest/tmp/netedit.gui.16Nov133029.9208/netedit.gui/additionalElements/containerstop/load/genericparameters\gui-settings.xml"/>
        <window-size value="700,500"/>
        <window-pos value="50,50"/>
        <gui-testing value="true"/>
        <gui-testing-debug value="true"/>
        <gui-testing-debug-gl value="true"/>
    </visualisation>

    <report>
        <no-warnings value="true"/>
        <error-log value="C:/Users/alva_pa/.texttest/tmp/netedit.gui.16Nov133029.9208/netedit.gui/additionalElements/containerstop/load/genericparameters\log.txt"/>
    </report>

</configuration>
-->

<additional xmlns:xsi="http://www.w3.org/2001/XMLSchema-instance" xsi:noNamespaceSchemaLocation="http://sumo.dlr.de/xsd/additional_file.xsd">
    <containerStop id="containerStop_00" lane="gneE0_0" lines="line1 line2" startPos="5.00" endPos="10.00">
        <param key="key1" value="value4"/>
        <param key="key2" value=""/>
        <param key="key4" value="value5"/>
    </containerStop>
</additional>
