<?xml version="1.0" ?>
<additional xmlns:xsi="http://www.w3.org/2001/XMLSchema-instance" xsi:noNamespaceSchemaLocation="http://sumo.dlr.de/xsd/additional_file.xsd">
   <vTypeDistribution id="exampleDist">
      <vType id="exampleDist0" foo="1.000"/>
      <vType id="exampleDist1" foo="1.000"/>
      <vType id="exampleDist2" foo="1.000"/>
      <vType id="exampleDist3" foo="1.000"/>
      <vType id="exampleDist4" foo="1.000"/>
      <vType id="exampleDist5" foo="1.000"/>
      <vType id="exampleDist6" foo="1.000"/>
      <vType id="exampleDist7" foo="1.000"/>
      <vType id="exampleDist8" foo="1.000"/>
      <vType id="exampleDist9" foo="1.000"/>
   </vTypeDistribution>
</additional>
