<?xml version="1.0" encoding="UTF-8"?>

<!-- generated on 2021-12-06 18:32:28 by Eclipse SUMO netconvert Version v1_11_0+0348-ecb31501c71
This data file and the accompanying materials
are made available under the terms of the Eclipse Public License v2.0
which accompanies this distribution, and is available at
http://www.eclipse.org/legal/epl-v20.html
SPDX-License-Identifier: EPL-2.0
<configuration xmlns:xsi="http://www.w3.org/2001/XMLSchema-instance" xsi:noNamespaceSchemaLocation="http://sumo.dlr.de/xsd/netconvertConfiguration.xsd">

    <input>
        <node-files value="input_plain.nod.xml"/>
        <edge-files value="input_plain.edg.xml"/>
        <connection-files value="input_plain.con.xml"/>
    </input>

    <output>
        <write-license value="true"/>
        <output-file value="net.net.xml"/>
    </output>

    <junctions>
        <no-turnarounds value="true"/>
    </junctions>

    <report>
        <xml-validation value="never"/>
        <aggregate-warnings value="5"/>
    </report>

</configuration>
-->

<net version="1.9" junctionCornerDetail="5" limitTurnSpeed="5.50" xmlns:xsi="http://www.w3.org/2001/XMLSchema-instance" xsi:noNamespaceSchemaLocation="http://sumo.dlr.de/xsd/net_file.xsd">

    <location netOffset="100.00,100.00" convBoundary="0.00,0.00,200.00,200.00" origBoundary="-10000000000.00,-10000000000.00,10000000000.00,10000000000.00" projParameter="!"/>

    <edge id=":C_0" function="internal">
        <lane id=":C_0_0" index="0" allow="bicycle" speed="5.01" length="5.64" width="1.00" shape="93.10,110.40 92.88,108.87 92.22,107.78 91.13,107.12 89.60,106.90"/>
    </edge>
    <edge id=":C_1" function="internal">
        <lane id=":C_1_0" index="0" allow="bicycle" speed="13.89" length="20.80" width="1.00" shape="93.10,110.40 93.10,89.60"/>
    </edge>
    <edge id=":C_2" function="internal">
        <lane id=":C_2_0" index="0" allow="bicycle" speed="10.89" length="8.81" width="1.00" shape="93.10,110.40 94.18,102.83 94.78,101.83"/>
    </edge>
    <edge id=":C_3" function="internal">
        <lane id=":C_3_0" index="0" allow="passenger" speed="6.51" length="3.93" shape="95.20,110.40 94.85,107.95 94.10,106.70"/>
    </edge>
    <edge id=":C_4" function="internal">
        <lane id=":C_4_0" index="0" allow="passenger" speed="13.89" length="20.80" shape="95.20,110.40 95.20,89.60"/>
        <lane id=":C_4_1" index="1" allow="passenger" speed="13.89" length="20.80" shape="98.40,110.40 98.40,89.60"/>
    </edge>
    <edge id=":C_6" function="internal">
        <lane id=":C_6_0" index="0" allow="passenger" speed="9.26" length="6.96" shape="98.40,110.40 99.15,105.15 100.00,103.73"/>
    </edge>
    <edge id=":C_26" function="internal">
        <lane id=":C_26_0" index="0" allow="bicycle" speed="10.89" length="19.09" width="1.00" shape="94.78,101.83 97.42,97.42 102.83,94.18 110.40,93.10"/>
    </edge>
    <edge id=":C_27" function="internal">
        <lane id=":C_27_0" index="0" allow="passenger" speed="6.51" length="5.10" shape="94.10,106.70 93.80,106.20 92.05,105.15 89.60,104.80"/>
    </edge>
    <edge id=":C_28" function="internal">
        <lane id=":C_28_0" index="0" allow="passenger" speed="9.26" length="12.40" shape="100.00,103.73 101.40,101.40 105.15,99.15 110.40,98.40"/>
    </edge>
    <edge id=":C_7" function="internal">
        <lane id=":C_7_0" index="0" allow="bicycle" speed="5.01" length="5.64" width="1.00" shape="110.40,106.90 108.87,107.12 107.78,107.78 107.12,108.87 106.90,110.40"/>
    </edge>
    <edge id=":C_8" function="internal">
        <lane id=":C_8_0" index="0" allow="bicycle" speed="13.89" length="20.80" width="1.00" shape="110.40,106.90 89.60,106.90"/>
    </edge>
    <edge id=":C_9" function="internal">
        <lane id=":C_9_0" index="0" allow="bicycle" speed="10.89" length="27.90" width="1.00" shape="110.40,106.90 102.83,105.82 97.42,102.58 94.18,97.17 93.10,89.60"/>
    </edge>
    <edge id=":C_10" function="internal">
        <lane id=":C_10_0" index="0" allow="passenger" speed="6.51" length="9.03" shape="110.40,104.80 107.95,105.15 106.20,106.20 105.15,107.95 104.80,110.40"/>
    </edge>
    <edge id=":C_11" function="internal">
        <lane id=":C_11_0" index="0" allow="passenger" speed="13.89" length="20.80" shape="110.40,104.80 89.60,104.80"/>
    </edge>
    <edge id=":C_12" function="internal">
        <lane id=":C_12_0" index="0" allow="passenger" speed="9.26" length="19.35" shape="110.40,101.60 105.15,100.85 101.40,98.60 99.15,94.85 98.40,89.60"/>
    </edge>
    <edge id=":C_13" function="internal">
        <lane id=":C_13_0" index="0" allow="bicycle" speed="5.01" length="5.64" width="1.00" shape="106.90,89.60 107.12,91.13 107.78,92.22 108.87,92.88 110.40,93.10"/>
    </edge>
    <edge id=":C_14" function="internal">
        <lane id=":C_14_0" index="0" allow="bicycle" speed="13.89" length="20.80" width="1.00" shape="106.90,89.60 106.90,110.40"/>
    </edge>
    <edge id=":C_15" function="internal">
        <lane id=":C_15_0" index="0" allow="bicycle" speed="10.89" length="8.81" width="1.00" shape="106.90,89.60 105.82,97.17 105.22,98.17"/>
    </edge>
    <edge id=":C_16" function="internal">
        <lane id=":C_16_0" index="0" allow="passenger" speed="6.51" length="3.93" shape="104.80,89.60 105.15,92.05 105.90,93.30"/>
        <lane id=":C_16_1" index="1" allow="passenger" speed="8.00" length="9.55" shape="101.60,89.60 102.15,93.45 103.80,96.20 105.90,97.46"/>
    </edge>
    <edge id=":C_18" function="internal">
        <lane id=":C_18_0" index="0" allow="passenger" speed="13.89" length="20.80" shape="101.60,89.60 101.60,110.40"/>
    </edge>
    <edge id=":C_19" function="internal">
        <lane id=":C_19_0" index="0" allow="passenger" speed="9.26" length="6.96" shape="101.60,89.60 100.85,94.85 100.00,96.27"/>
    </edge>
    <edge id=":C_29" function="internal">
        <lane id=":C_29_0" index="0" allow="bicycle" speed="10.89" length="19.09" width="1.00" shape="105.22,98.17 102.58,102.58 97.17,105.82 89.60,106.90"/>
    </edge>
    <edge id=":C_30" function="internal">
        <lane id=":C_30_0" index="0" allow="passenger" speed="6.51" length="5.10" shape="105.90,93.30 106.20,93.80 107.95,94.85 110.40,95.20"/>
    </edge>
    <edge id=":C_31" function="internal">
        <lane id=":C_31_0" index="0" allow="passenger" speed="8.00" length="4.65" shape="105.90,97.46 106.55,97.85 110.40,98.40"/>
    </edge>
    <edge id=":C_32" function="internal">
        <lane id=":C_32_0" index="0" allow="passenger" speed="9.26" length="12.40" shape="100.00,96.27 98.60,98.60 94.85,100.85 89.60,101.60"/>
    </edge>
    <edge id=":C_20" function="internal">
        <lane id=":C_20_0" index="0" allow="bicycle" speed="5.01" length="5.64" width="1.00" shape="89.60,93.10 91.13,92.88 92.22,92.22 92.88,91.13 93.10,89.60"/>
    </edge>
    <edge id=":C_21" function="internal">
        <lane id=":C_21_0" index="0" allow="bicycle" speed="13.89" length="20.80" width="1.00" shape="89.60,93.10 110.40,93.10"/>
    </edge>
    <edge id=":C_22" function="internal">
        <lane id=":C_22_0" index="0" allow="bicycle" speed="10.89" length="27.90" width="1.00" shape="89.60,93.10 97.17,94.18 102.58,97.42 105.82,102.83 106.90,110.40"/>
    </edge>
    <edge id=":C_23" function="internal">
        <lane id=":C_23_0" index="0" allow="passenger" speed="6.51" length="9.03" shape="89.60,95.20 92.05,94.85 93.80,93.80 94.85,92.05 95.20,89.60"/>
    </edge>
    <edge id=":C_24" function="internal">
        <lane id=":C_24_0" index="0" allow="passenger" speed="13.89" length="20.80" shape="89.60,95.20 110.40,95.20"/>
    </edge>
    <edge id=":C_25" function="internal">
        <lane id=":C_25_0" index="0" allow="passenger" speed="9.26" length="19.35" shape="89.60,98.40 94.85,99.15 98.60,101.40 100.85,105.15 101.60,110.40"/>
    </edge>

    <edge id="CE" from="C" to="E" priority="2">
        <lane id="CE_0" index="0" allow="bicycle" speed="13.89" length="89.60" width="1.00" shape="110.40,93.10 200.00,93.10"/>
        <lane id="CE_1" index="1" allow="passenger" speed="13.89" length="89.60" shape="110.40,95.20 200.00,95.20"/>
        <lane id="CE_2" index="2" allow="passenger" speed="13.89" length="89.60" shape="110.40,98.40 200.00,98.40"/>
    </edge>
    <edge id="CN" from="C" to="N" priority="2">
        <lane id="CN_0" index="0" allow="bicycle" speed="13.89" length="89.60" width="1.00" shape="106.90,110.40 106.90,200.00"/>
        <lane id="CN_1" index="1" allow="passenger" speed="13.89" length="89.60" shape="104.80,110.40 104.80,200.00"/>
        <lane id="CN_2" index="2" allow="passenger" speed="13.89" length="89.60" shape="101.60,110.40 101.60,200.00"/>
    </edge>
    <edge id="CS" from="C" to="S" priority="2">
        <lane id="CS_0" index="0" allow="bicycle" speed="13.89" length="89.60" width="1.00" shape="93.10,89.60 93.10,0.00"/>
        <lane id="CS_1" index="1" allow="passenger" speed="13.89" length="89.60" shape="95.20,89.60 95.20,0.00"/>
        <lane id="CS_2" index="2" allow="passenger" speed="13.89" length="89.60" shape="98.40,89.60 98.40,0.00"/>
    </edge>
    <edge id="CW" from="C" to="W" priority="2">
        <lane id="CW_0" index="0" allow="bicycle" speed="13.89" length="89.60" width="1.00" shape="89.60,106.90 0.00,106.90"/>
        <lane id="CW_1" index="1" allow="passenger" speed="13.89" length="89.60" shape="89.60,104.80 0.00,104.80"/>
        <lane id="CW_2" index="2" allow="passenger" speed="13.89" length="89.60" shape="89.60,101.60 0.00,101.60"/>
    </edge>
    <edge id="EC" from="E" to="C" priority="2">
        <lane id="EC_0" index="0" allow="bicycle" speed="13.89" length="89.60" width="1.00" shape="200.00,106.90 110.40,106.90"/>
        <lane id="EC_1" index="1" allow="passenger" speed="13.89" length="89.60" shape="200.00,104.80 110.40,104.80"/>
        <lane id="EC_2" index="2" allow="passenger" speed="13.89" length="89.60" shape="200.00,101.60 110.40,101.60"/>
    </edge>
    <edge id="NC" from="N" to="C" priority="2">
        <lane id="NC_0" index="0" allow="bicycle" speed="13.89" length="89.60" width="1.00" shape="93.10,200.00 93.10,110.40"/>
        <lane id="NC_1" index="1" allow="passenger" speed="13.89" length="89.60" shape="95.20,200.00 95.20,110.40"/>
        <lane id="NC_2" index="2" allow="passenger" speed="13.89" length="89.60" shape="98.40,200.00 98.40,110.40"/>
    </edge>
    <edge id="SC" from="S" to="C" priority="2">
        <lane id="SC_0" index="0" allow="bicycle" speed="13.89" length="89.60" width="1.00" shape="106.90,0.00 106.90,89.60"/>
        <lane id="SC_1" index="1" allow="passenger" speed="13.89" length="89.60" shape="104.80,0.00 104.80,89.60"/>
        <lane id="SC_2" index="2" allow="passenger" speed="13.89" length="89.60" shape="101.60,0.00 101.60,89.60"/>
    </edge>
    <edge id="WC" from="W" to="C" priority="2">
        <lane id="WC_0" index="0" allow="bicycle" speed="13.89" length="89.60" width="1.00" shape="0.00,93.10 89.60,93.10"/>
        <lane id="WC_1" index="1" allow="passenger" speed="13.89" length="89.60" shape="0.00,95.20 89.60,95.20"/>
        <lane id="WC_2" index="2" allow="passenger" speed="13.89" length="89.60" shape="0.00,98.40 89.60,98.40"/>
    </edge>

    <junction id="C" type="priority" x="100.00" y="100.00" incLanes="NC_0 NC_1 NC_2 EC_0 EC_1 EC_2 SC_0 SC_1 SC_2 WC_0 WC_1 WC_2" intLanes=":C_0_0 :C_1_0 :C_26_0 :C_27_0 :C_4_0 :C_4_1 :C_28_0 :C_7_0 :C_8_0 :C_9_0 :C_10_0 :C_11_0 :C_12_0 :C_13_0 :C_14_0 :C_29_0 :C_30_0 :C_31_0 :C_18_0 :C_32_0 :C_20_0 :C_21_0 :C_22_0 :C_23_0 :C_24_0 :C_25_0" shape="92.60,110.40 107.40,110.40 107.73,108.73 108.15,108.15 108.73,107.73 109.48,107.48 110.40,107.40 110.40,92.60 108.73,92.27 108.15,91.85 107.73,91.27 107.48,90.52 107.40,89.60 92.60,89.60 92.27,91.27 91.85,91.85 91.27,92.27 90.52,92.52 89.60,92.60 89.60,107.40 91.27,107.73 91.85,108.15 92.27,108.73 92.52,109.48">
        <request index="0"  response="00000000000000000000000000" foes="00000000001000000100000000" cont="0"/>
        <request index="1"  response="00000000000000000000000000" foes="11111110001000101100001000" cont="0"/>
        <request index="2"  response="00000011111110000000110000" foes="11011011111111101100111000" cont="1"/>
        <request index="3"  response="00000000000000000000000110" foes="00000010001000100100000110" cont="1"/>
        <request index="4"  response="00000000000000000000000000" foes="11111010001001101100000100" cont="0"/>
        <request index="5"  response="00000000000000000000000000" foes="11111010001001101100000100" cont="0"/>
        <request index="6"  response="00000001111100000000000000" foes="11010001111101101100000000" cont="1"/>
        <request index="7"  response="00000000000100000000000000" foes="00010000000100000000000000" cont="0"/>
        <request index="8"  response="00000001001100000001111111" foes="10010001001100010001111111" cont="0"/>
        <request index="9"  response="11111111001100100001110110" foes="11111111001100110001110110" cont="0"/>
        <request index="10" response="00000001000100001100000000" foes="10010001000100001100000000" cont="0"/>
        <request index="11" response="00000011001100000001111110" foes="10010011001100001001111110" cont="0"/>
        <request index="12" response="01111011001100000001110100" foes="01111011001100000001110100" cont="0"/>
        <request index="13" response="00000000000000000000000000" foes="00001000000000000000000100" cont="0"/>
        <request index="14" response="00000000000000000000000000" foes="01011000110001111111000100" cont="0"/>
        <request index="15" response="00000001000000000000111011" foes="11011001110001101101111111" cont="1"/>
        <request index="16" response="00000000001100000000000000" foes="01001000001100000001000100" cont="1"/>
        <request index="17" response="00000000001100000000000000" foes="01001000001100000001000100" cont="1"/>
        <request index="18" response="00000000000000000000000000" foes="11011000001001111101000100" cont="0"/>
        <request index="19" response="00000000000000000000111010" foes="11011000000001101000111110" cont="1"/>
        <request index="20" response="00000000000000000000000010" foes="00000000000000001000000010" cont="0"/>
        <request index="21" response="00000011111110000000110110" foes="00100011111111001000110110" cont="0"/>
        <request index="22" response="01000011001100110111110110" foes="01100011001101111111110110" cont="0"/>
        <request index="23" response="00011000000000000000110010" foes="00011000000001001000110010" cont="0"/>
        <request index="24" response="00000011111100000001110110" foes="00010011111101001001110110" cont="0"/>
        <request index="25" response="00000011001000110101110110" foes="00000011001000111101110110" cont="0"/>
    </junction>
    <junction id="E" type="dead_end" x="200.00" y="100.00" incLanes="CE_0 CE_1 CE_2" intLanes="" shape="200.00,100.00 200.00,92.60 200.00,100.00"/>
    <junction id="N" type="dead_end" x="100.00" y="200.00" incLanes="CN_0 CN_1 CN_2" intLanes="" shape="100.00,200.00 107.40,200.00 100.00,200.00"/>
    <junction id="S" type="dead_end" x="100.00" y="0.00" incLanes="CS_0 CS_1 CS_2" intLanes="" shape="100.00,0.00 92.60,0.00 100.00,0.00"/>
    <junction id="W" type="dead_end" x="0.00" y="100.00" incLanes="CW_0 CW_1 CW_2" intLanes="" shape="0.00,100.00 0.00,107.40 0.00,100.00"/>

    <junction id=":C_26_0" type="internal" x="94.78" y="101.83" incLanes=":C_2_0 :C_15_0 :C_19_0 SC_0 SC_1 SC_2" intLanes=":C_29_0 :C_32_0 :C_4_0 :C_4_1 :C_8_0 :C_9_0 :C_11_0 :C_12_0 :C_13_0 :C_14_0 :C_15_0 :C_16_0 :C_16_1 :C_18_0 :C_19_0 :C_21_0 :C_22_0 :C_24_0 :C_25_0"/>
    <junction id=":C_27_0" type="internal" x="94.10" y="106.70" incLanes=":C_3_0 NC_0" intLanes=":C_1_0 :C_2_0 :C_8_0 :C_11_0 :C_15_0 :C_19_0"/>
    <junction id=":C_28_0" type="internal" x="100.00" y="103.73" incLanes=":C_6_0 :C_15_0 SC_0 SC_1 SC_2" intLanes=":C_29_0 :C_8_0 :C_9_0 :C_11_0 :C_12_0 :C_13_0 :C_14_0 :C_15_0 :C_16_0 :C_16_1 :C_18_0 :C_21_0 :C_22_0 :C_24_0 :C_25_0"/>
    <junction id=":C_29_0" type="internal" x="105.22" y="98.17" incLanes=":C_15_0 NC_0 NC_1 NC_2" intLanes=":C_0_0 :C_1_0 :C_2_0 :C_3_0 :C_4_0 :C_4_1 :C_6_0 :C_8_0 :C_9_0 :C_11_0 :C_12_0 :C_18_0 :C_21_0 :C_22_0 :C_24_0 :C_25_0"/>
    <junction id=":C_30_0" type="internal" x="105.90" y="93.30" incLanes=":C_16_0 SC_0" intLanes=":C_2_0 :C_6_0 :C_14_0 :C_15_0 :C_21_0 :C_24_0"/>
    <junction id=":C_31_0" type="internal" x="105.90" y="97.46" incLanes=":C_16_1 SC_0" intLanes=":C_2_0 :C_6_0 :C_14_0 :C_15_0 :C_21_0 :C_24_0"/>
    <junction id=":C_32_0" type="internal" x="100.00" y="96.27" incLanes=":C_19_0 NC_0 NC_1 NC_2" intLanes=":C_0_0 :C_1_0 :C_2_0 :C_3_0 :C_4_0 :C_4_1 :C_8_0 :C_9_0 :C_11_0 :C_12_0 :C_21_0 :C_22_0 :C_24_0 :C_25_0"/>

    <connection from="EC" to="CN" fromLane="0" toLane="0" via=":C_7_0" dir="r" state="m"/>
    <connection from="EC" to="CW" fromLane="0" toLane="0" via=":C_8_0" dir="s" state="m"/>
    <connection from="EC" to="CS" fromLane="0" toLane="0" via=":C_9_0" dir="l" state="m"/>
    <connection from="EC" to="CN" fromLane="1" toLane="1" via=":C_10_0" dir="r" state="m"/>
    <connection from="EC" to="CW" fromLane="1" toLane="1" via=":C_11_0" dir="s" state="m"/>
    <connection from="EC" to="CS" fromLane="2" toLane="2" via=":C_12_0" dir="l" state="m"/>
    <connection from="NC" to="CW" fromLane="0" toLane="0" via=":C_0_0" dir="r" state="M"/>
    <connection from="NC" to="CS" fromLane="0" toLane="0" via=":C_1_0" dir="s" state="M"/>
    <connection from="NC" to="CE" fromLane="0" toLane="0" via=":C_2_0" dir="l" state="m"/>
    <connection from="NC" to="CW" fromLane="1" toLane="1" via=":C_3_0" dir="r" state="m"/>
    <connection from="NC" to="CS" fromLane="1" toLane="1" via=":C_4_0" dir="s" state="M"/>
    <connection from="NC" to="CS" fromLane="2" toLane="2" via=":C_4_1" dir="s" state="M"/>
    <connection from="NC" to="CE" fromLane="2" toLane="2" via=":C_6_0" dir="l" state="m"/>
    <connection from="SC" to="CE" fromLane="0" toLane="0" via=":C_13_0" dir="r" state="M"/>
    <connection from="SC" to="CN" fromLane="0" toLane="0" via=":C_14_0" dir="s" state="M"/>
    <connection from="SC" to="CW" fromLane="0" toLane="0" via=":C_15_0" dir="l" state="m"/>
    <connection from="SC" to="CE" fromLane="1" toLane="1" via=":C_16_0" dir="r" state="m"/>
    <connection from="SC" to="CE" fromLane="2" toLane="2" via=":C_16_1" dir="r" state="m"/>
    <connection from="SC" to="CN" fromLane="2" toLane="2" via=":C_18_0" dir="s" state="M"/>
    <connection from="SC" to="CW" fromLane="2" toLane="2" via=":C_19_0" dir="l" state="m"/>
    <connection from="WC" to="CS" fromLane="0" toLane="0" via=":C_20_0" dir="r" state="m"/>
    <connection from="WC" to="CE" fromLane="0" toLane="0" via=":C_21_0" dir="s" state="m"/>
    <connection from="WC" to="CN" fromLane="0" toLane="0" via=":C_22_0" dir="l" state="m"/>
    <connection from="WC" to="CS" fromLane="1" toLane="1" via=":C_23_0" dir="r" state="m"/>
    <connection from="WC" to="CE" fromLane="1" toLane="1" via=":C_24_0" dir="s" state="m"/>
    <connection from="WC" to="CN" fromLane="2" toLane="2" via=":C_25_0" dir="l" state="m"/>

    <connection from=":C_0" to="CW" fromLane="0" toLane="0" dir="r" state="M"/>
    <connection from=":C_1" to="CS" fromLane="0" toLane="0" dir="s" state="M"/>
    <connection from=":C_2" to="CE" fromLane="0" toLane="0" via=":C_26_0" dir="l" state="m"/>
    <connection from=":C_26" to="CE" fromLane="0" toLane="0" dir="l" state="M"/>
    <connection from=":C_3" to="CW" fromLane="0" toLane="1" via=":C_27_0" dir="r" state="m"/>
    <connection from=":C_27" to="CW" fromLane="0" toLane="1" dir="r" state="M"/>
    <connection from=":C_4" to="CS" fromLane="0" toLane="1" dir="s" state="M"/>
    <connection from=":C_4" to="CS" fromLane="1" toLane="2" dir="s" state="M"/>
    <connection from=":C_6" to="CE" fromLane="0" toLane="2" via=":C_28_0" dir="l" state="m"/>
    <connection from=":C_28" to="CE" fromLane="0" toLane="2" dir="l" state="M"/>
    <connection from=":C_7" to="CN" fromLane="0" toLane="0" dir="r" state="M"/>
    <connection from=":C_8" to="CW" fromLane="0" toLane="0" dir="s" state="M"/>
    <connection from=":C_9" to="CS" fromLane="0" toLane="0" dir="l" state="M"/>
    <connection from=":C_10" to="CN" fromLane="0" toLane="1" dir="r" state="M"/>
    <connection from=":C_11" to="CW" fromLane="0" toLane="1" dir="s" state="M"/>
    <connection from=":C_12" to="CS" fromLane="0" toLane="2" dir="l" state="M"/>
    <connection from=":C_13" to="CE" fromLane="0" toLane="0" dir="r" state="M"/>
    <connection from=":C_14" to="CN" fromLane="0" toLane="0" dir="s" state="M"/>
    <connection from=":C_15" to="CW" fromLane="0" toLane="0" via=":C_29_0" dir="l" state="m"/>
    <connection from=":C_29" to="CW" fromLane="0" toLane="0" dir="l" state="M"/>
    <connection from=":C_16" to="CE" fromLane="0" toLane="1" via=":C_30_0" dir="r" state="m"/>
    <connection from=":C_30" to="CE" fromLane="0" toLane="1" dir="r" state="M"/>
    <connection from=":C_16" to="CE" fromLane="1" toLane="2" via=":C_31_0" dir="r" state="m"/>
    <connection from=":C_31" to="CE" fromLane="0" toLane="2" dir="r" state="M"/>
    <connection from=":C_18" to="CN" fromLane="0" toLane="2" dir="s" state="M"/>
    <connection from=":C_19" to="CW" fromLane="0" toLane="2" via=":C_32_0" dir="l" state="m"/>
    <connection from=":C_32" to="CW" fromLane="0" toLane="2" dir="l" state="M"/>
    <connection from=":C_20" to="CS" fromLane="0" toLane="0" dir="r" state="M"/>
    <connection from=":C_21" to="CE" fromLane="0" toLane="0" dir="s" state="M"/>
    <connection from=":C_22" to="CN" fromLane="0" toLane="0" dir="l" state="M"/>
    <connection from=":C_23" to="CS" fromLane="0" toLane="1" dir="r" state="M"/>
    <connection from=":C_24" to="CE" fromLane="0" toLane="1" dir="s" state="M"/>
    <connection from=":C_25" to="CN" fromLane="0" toLane="2" dir="l" state="M"/>

</net>
