<?xml version="1.0" encoding="UTF-8"?>

<!-- generated on Fri Oct 25 08:21:02 2013 by SUMO netconvert Version dev-SVN-r14913
<?xml version="1.0" encoding="UTF-8"?>

<configuration xmlns:xsi="http://www.w3.org/2001/XMLSchema-instance" xsi:noNamespaceSchemaLocation="http://sumo-sim.org/xsd/netconvertConfiguration.xsd">

    <input>
        <node-files value="input_nodes.nod.xml"/>
        <edge-files value="input_edges.edg.xml"/>
    </input>

    <output>
        <output-file value="net.net.xml"/>
    </output>

    <tls_building>
        <tls.guess value="true"/>
    </tls_building>

    <report>
        <verbose value="true"/>
    </report>

</configuration>
-->

<net version="0.13" xmlns:xsi="http://www.w3.org/2001/XMLSchema-instance" xsi:noNamespaceSchemaLocation="http://sumo-sim.org/xsd/net_file.xsd">

    <location netOffset="-14465.13,-28133.00" convBoundary="0.00,0.00,255.81,227.00" origBoundary="14465.13,28133.00,14720.94,28360.00" projParameter="!"/>

    <edge id=":n1_0" function="internal">
        <lane id=":n1_0_0" index="0" speed="13.89" length="4.82" shape="74.03,0.43 74.50,-0.98 75.19,-1.59 76.09,-1.41 77.21,-0.43"/>
    </edge>
    <edge id=":n13_0" function="internal">
        <lane id=":n13_0_0" index="0" speed="13.89" length="4.82" shape="255.41,169.90 256.81,170.40 257.41,171.10 257.21,172.00 256.21,173.10"/>
    </edge>
    <edge id=":n3_0" function="internal">
        <lane id=":n3_0_0" index="0" speed="13.89" length="4.82" shape="0.30,228.62 -1.07,228.03 -1.62,227.30 -1.37,226.41 -0.30,225.38"/>
    </edge>
    <edge id=":n5_0" function="internal">
        <lane id=":n5_0_0" index="0" speed="13.89" length="9.83" shape="135.70,203.45 126.10,205.53"/>
    </edge>
    <edge id=":n5_1" function="internal">
        <lane id=":n5_1_0" index="0" speed="13.89" length="7.28" shape="135.70,203.45 132.92,203.73 130.68,203.01 129.18,201.49"/>
    </edge>
    <edge id=":n5_2" function="internal">
        <lane id=":n5_2_0" index="0" speed="13.89" length="2.41" shape="135.70,203.45 134.30,202.96 133.70,202.26"/>
    </edge>
    <edge id=":n5_9" function="internal">
        <lane id=":n5_9_0" index="0" speed="13.89" length="3.23" shape="129.18,201.49 128.98,201.29 127.84,198.57"/>
    </edge>
    <edge id=":n5_10" function="internal">
        <lane id=":n5_10_0" index="0" speed="13.89" length="2.41" shape="133.70,202.26 133.90,201.36 134.90,200.25"/>
    </edge>
    <edge id=":n5_3" function="internal">
        <lane id=":n5_3_0" index="0" speed="13.89" length="5.26" shape="131.02,197.71 131.60,199.10 132.44,199.99 133.54,200.38 134.90,200.25"/>
    </edge>
    <edge id=":n5_4" function="internal">
        <lane id=":n5_4_0" index="0" speed="13.89" length="3.37" shape="131.02,197.71 131.39,200.67 131.27,201.04"/>
    </edge>
    <edge id=":n5_5" function="internal">
        <lane id=":n5_5_0" index="0" speed="13.89" length="2.41" shape="131.02,197.71 130.55,199.12 129.86,199.73"/>
    </edge>
    <edge id=":n5_11" function="internal">
        <lane id=":n5_11_0" index="0" speed="13.89" length="7.39" shape="131.27,201.04 130.69,202.96 128.92,204.58 126.10,205.53"/>
    </edge>
    <edge id=":n5_12" function="internal">
        <lane id=":n5_12_0" index="0" speed="13.89" length="2.41" shape="129.86,199.73 128.96,199.55 127.84,198.57"/>
    </edge>
    <edge id=":n5_6" function="internal">
        <lane id=":n5_6_0" index="0" speed="13.89" length="5.10" shape="125.50,202.29 126.84,201.83 127.68,201.07 128.01,199.98 127.84,198.57"/>
    </edge>
    <edge id=":n5_7" function="internal">
        <lane id=":n5_7_0" index="0" speed="13.89" length="9.61" shape="125.50,202.29 134.90,200.25"/>
    </edge>
    <edge id=":n5_8" function="internal">
        <lane id=":n5_8_0" index="0" speed="13.89" length="2.41" shape="125.50,202.29 126.87,202.87 127.42,203.61"/>
    </edge>
    <edge id=":n5_13" function="internal">
        <lane id=":n5_13_0" index="0" speed="13.89" length="2.41" shape="127.42,203.61 127.16,204.50 126.10,205.53"/>
    </edge>

    <edge id="e10" from="n5" to="n3" priority="-1">
        <lane id="e10_0" index="0" speed="13.89" length="127.90" shape="126.10,205.53 0.30,228.62"/>
    </edge>
    <edge id="e11" from="n3" to="n5" priority="-1">
        <lane id="e11_0" index="0" speed="13.89" length="127.90" shape="-0.30,225.38 125.50,202.29"/>
    </edge>
    <edge id="e13" from="n5" to="n1" priority="-1">
        <lane id="e13_0" index="0" speed="13.89" length="205.32" shape="127.84,198.57 74.03,0.43"/>
    </edge>
    <edge id="e16" from="n1" to="n5" priority="-1">
        <lane id="e16_0" index="0" speed="13.89" length="205.32" shape="77.21,-0.43 131.02,197.71"/>
    </edge>
    <edge id="e21" from="n13" to="n5" priority="-1">
        <lane id="e21_0" index="0" speed="13.89" length="124.28" shape="256.21,173.10 135.70,203.45"/>
    </edge>
    <edge id="e22" from="n5" to="n13" priority="-1">
        <lane id="e22_0" index="0" speed="13.89" length="124.28" shape="134.90,200.25 255.41,169.90"/>
    </edge>

    <tlLogic id="n5" type="static" programID="0" offset="0">
        <phase duration="31" state="GggrrrGGg"/>
        <phase duration="4" state="yggrrryyg"/>
        <phase duration="6" state="rGGrrrrrG"/>
        <phase duration="4" state="ryyrrrrry"/>
        <phase duration="31" state="rrrGGgGrr"/>
        <phase duration="4" state="rrryyyyrr"/>
    </tlLogic>

    <junction id="n1" type="priority" x="75.62" y="0.00" incLanes="e13_0" intLanes=":n1_0_0" shape="75.67,-0.01 78.76,-0.85 72.48,0.85 75.57,0.01">
        <request index="0" response="0" foes="0" cont="0"/>
    </junction>
    <junction id="n13" type="priority" x="255.81" y="171.50" incLanes="e22_0" intLanes=":n13_0_0" shape="255.82,171.55 256.60,174.65 255.02,168.35 255.80,171.45">
        <request index="0" response="0" foes="0" cont="0"/>
    </junction>
    <junction id="n3" type="priority" x="0.00" y="227.00" incLanes="e10_0" intLanes=":n3_0_0" shape="-0.01,226.95 -0.59,223.80 0.59,230.20 0.01,227.05">
        <request index="0" response="0" foes="0" cont="0"/>
    </junction>
    <junction id="n5" type="traffic_light" x="130.75" y="203.00" incLanes="e21_0 e16_0 e11_0" intLanes=":n5_0_0 :n5_9_0 :n5_10_0 :n5_3_0 :n5_11_0 :n5_12_0 :n5_6_0 :n5_7_0 :n5_13_0" shape="136.09,205.01 134.50,198.70 132.57,197.29 126.29,198.99 125.21,200.71 126.39,207.11">
        <request index="0" response="000000000" foes="100010000" cont="0"/>
        <request index="1" response="011000000" foes="011110000" cont="1"/>
        <request index="2" response="010001000" foes="010001000" cont="1"/>
        <request index="3" response="010000000" foes="010000100" cont="0"/>
        <request index="4" response="010000011" foes="110000011" cont="1"/>
        <request index="5" response="001000010" foes="001000010" cont="1"/>
        <request index="6" response="000000000" foes="000100010" cont="0"/>
        <request index="7" response="000000000" foes="000011110" cont="0"/>
        <request index="8" response="000010001" foes="000010001" cont="1"/>
    </junction>

    <junction id=":n5_9_0" type="internal" x="129.18" y="201.49" incLanes=":n5_1_0 e11_0" intLanes=":n5_4_0 :n5_5_0 :n5_6_0 :n5_7_0"/>
    <junction id=":n5_10_0" type="internal" x="133.70" y="202.26" incLanes=":n5_2_0 e11_0 e16_0" intLanes=":n5_3_0 :n5_7_0"/>
    <junction id=":n5_11_0" type="internal" x="131.27" y="201.04" incLanes=":n5_4_0 e11_0 e21_0" intLanes=":n5_0_0 :n5_1_0 :n5_7_0 :n5_8_0"/>
    <junction id=":n5_12_0" type="internal" x="129.86" y="199.73" incLanes=":n5_5_0 e11_0 e21_0" intLanes=":n5_1_0 :n5_6_0"/>
    <junction id=":n5_13_0" type="internal" x="127.42" y="203.61" incLanes=":n5_8_0 e16_0 e21_0" intLanes=":n5_0_0 :n5_4_0"/>

    <connection from="e10" to="e11" fromLane="0" toLane="0" via=":n3_0_0" dir="t" state="M"/>
    <connection from="e11" to="e13" fromLane="0" toLane="0" via=":n5_6_0" tl="n5" linkIndex="6" dir="r" state="o"/>
    <connection from="e11" to="e22" fromLane="0" toLane="0" via=":n5_7_0" tl="n5" linkIndex="7" dir="s" state="o"/>
    <connection from="e11" to="e10" fromLane="0" toLane="0" via=":n5_8_0" tl="n5" linkIndex="8" dir="t" state="o"/>
    <connection from="e13" to="e16" fromLane="0" toLane="0" via=":n1_0_0" dir="t" state="M"/>
    <connection from="e16" to="e22" fromLane="0" toLane="0" via=":n5_3_0" tl="n5" linkIndex="3" dir="r" state="o"/>
    <connection from="e16" to="e10" fromLane="0" toLane="0" via=":n5_4_0" tl="n5" linkIndex="4" dir="l" state="o"/>
    <connection from="e16" to="e13" fromLane="0" toLane="0" via=":n5_5_0" tl="n5" linkIndex="5" dir="t" state="o"/>
    <connection from="e21" to="e10" fromLane="0" toLane="0" via=":n5_0_0" tl="n5" linkIndex="0" dir="s" state="o"/>
    <connection from="e21" to="e13" fromLane="0" toLane="0" via=":n5_1_0" tl="n5" linkIndex="1" dir="l" state="o"/>
    <connection from="e21" to="e22" fromLane="0" toLane="0" via=":n5_2_0" tl="n5" linkIndex="2" dir="t" state="o"/>
    <connection from="e22" to="e21" fromLane="0" toLane="0" via=":n13_0_0" dir="t" state="M"/>

    <connection from=":n1_0" to="e16" fromLane="0" toLane="0" dir="s" state="M"/>
    <connection from=":n13_0" to="e21" fromLane="0" toLane="0" dir="s" state="M"/>
    <connection from=":n3_0" to="e11" fromLane="0" toLane="0" dir="s" state="M"/>
    <connection from=":n5_0" to="e10" fromLane="0" toLane="0" dir="s" state="M"/>
    <connection from=":n5_1" to="e13" fromLane="0" toLane="0" via=":n5_9_0" dir="s" state="M"/>
    <connection from=":n5_9" to="e13" fromLane="0" toLane="0" dir="s" state="M"/>
    <connection from=":n5_2" to="e22" fromLane="0" toLane="0" via=":n5_10_0" dir="s" state="M"/>
    <connection from=":n5_10" to="e22" fromLane="0" toLane="0" dir="s" state="M"/>
    <connection from=":n5_3" to="e22" fromLane="0" toLane="0" dir="s" state="M"/>
    <connection from=":n5_4" to="e10" fromLane="0" toLane="0" via=":n5_11_0" dir="s" state="M"/>
    <connection from=":n5_11" to="e10" fromLane="0" toLane="0" dir="s" state="M"/>
    <connection from=":n5_5" to="e13" fromLane="0" toLane="0" via=":n5_12_0" dir="s" state="M"/>
    <connection from=":n5_12" to="e13" fromLane="0" toLane="0" dir="s" state="M"/>
    <connection from=":n5_6" to="e13" fromLane="0" toLane="0" dir="s" state="M"/>
    <connection from=":n5_7" to="e22" fromLane="0" toLane="0" dir="s" state="M"/>
    <connection from=":n5_8" to="e10" fromLane="0" toLane="0" via=":n5_13_0" dir="s" state="M"/>
    <connection from=":n5_13" to="e10" fromLane="0" toLane="0" dir="s" state="M"/>

</net>
