<?xml version="1.0" encoding="UTF-8"?>

<!-- generated on 2023-01-06 08:14:53 by Eclipse SUMO netconvert Version v1_15_0+1362-339c192
This data file and the accompanying materials
are made available under the terms of the Eclipse Public License v2.0
which accompanies this distribution, and is available at
http://www.eclipse.org/legal/epl-v20.html
This file may also be made available under the following Secondary
Licenses when the conditions for such availability set forth in the Eclipse
Public License 2.0 are satisfied: GNU General Public License, version 2
or later which is available at
https://www.gnu.org/licenses/old-licenses/gpl-2.0-standalone.html
SPDX-License-Identifier: EPL-2.0 OR GPL-2.0-or-later
<configuration xmlns:xsi="http://www.w3.org/2001/XMLSchema-instance" xsi:noNamespaceSchemaLocation="http://sumo.dlr.de/xsd/netconvertConfiguration.xsd">

    <input>
        <osm-files value="data/osm_bbox.osm.xml.gz"/>
    </input>

    <output>
        <write-license value="true"/>
        <output-file value="net.net.xml"/>
        <output.street-names value="true"/>
        <output.original-names value="true"/>
    </output>

    <projection>
        <proj.utm value="true"/>
    </projection>

    <processing>
        <geometry.remove value="true"/>
        <roundabouts.guess value="true"/>
    </processing>

    <tls_building>
        <tls.discard-simple value="true"/>
        <tls.join value="true"/>
        <tls.guess-signals value="true"/>
        <tls.default-type value="actuated"/>
    </tls_building>

    <ramp_guessing>
        <ramps.guess value="true"/>
    </ramp_guessing>

    <junctions>
        <junctions.join value="true"/>
        <junctions.corner-detail value="5"/>
    </junctions>

    <report>
        <verbose value="true"/>
        <xml-validation value="never"/>
    </report>

</configuration>
-->

<net version="1.16" junctionCornerDetail="5" limitTurnSpeed="5.50" xmlns:xsi="http://www.w3.org/2001/XMLSchema-instance" xsi:noNamespaceSchemaLocation="http://sumo.dlr.de/xsd/net_file.xsd">

    <location netOffset="-605011.17,-5790381.46" convBoundary="0.00,0.00,145.39,312.65" origBoundary="10.538418,52.253784,10.540562,52.256578" projParameter="+proj=utm +zone=32 +ellps=WGS84 +datum=WGS84 +units=m +no_defs"/>

    <type id="highway.bridleway" priority="1" numLanes="1" speed="2.78" allow="pedestrian" oneway="1" width="2.00"/>
    <type id="highway.bus_guideway" priority="1" numLanes="1" speed="27.78" allow="bus" oneway="1"/>
    <type id="highway.cycleway" priority="1" numLanes="1" speed="5.56" allow="bicycle" oneway="0" width="1.00"/>
    <type id="highway.footway" priority="1" numLanes="1" speed="2.78" allow="pedestrian" oneway="1" width="2.00"/>
    <type id="highway.ford" priority="1" numLanes="1" speed="2.78" allow="army" oneway="0"/>
    <type id="highway.living_street" priority="2" numLanes="1" speed="2.78" disallow="tram rail_urban rail rail_electric rail_fast ship" oneway="0"/>
    <type id="highway.motorway" priority="14" numLanes="2" speed="39.44" allow="private emergency authority army vip passenger hov taxi bus coach delivery truck trailer motorcycle evehicle custom1 custom2" oneway="1"/>
    <type id="highway.motorway_link" priority="9" numLanes="1" speed="22.22" allow="private emergency authority army vip passenger hov taxi bus coach delivery truck trailer motorcycle evehicle custom1 custom2" oneway="1"/>
    <type id="highway.path" priority="1" numLanes="1" speed="5.56" allow="pedestrian bicycle" oneway="0" width="2.00"/>
    <type id="highway.pedestrian" priority="1" numLanes="1" speed="2.78" allow="pedestrian" oneway="1" width="2.00"/>
    <type id="highway.primary" priority="12" numLanes="2" speed="27.78" disallow="tram rail_urban rail rail_electric rail_fast ship" oneway="0"/>
    <type id="highway.primary_link" priority="7" numLanes="1" speed="22.22" disallow="tram rail_urban rail rail_electric rail_fast ship" oneway="0"/>
    <type id="highway.raceway" priority="15" numLanes="2" speed="83.33" allow="vip" oneway="0"/>
    <type id="highway.residential" priority="3" numLanes="1" speed="13.89" disallow="tram rail_urban rail rail_electric rail_fast ship" oneway="0"/>
    <type id="highway.secondary" priority="11" numLanes="1" speed="27.78" disallow="tram rail_urban rail rail_electric rail_fast ship" oneway="0"/>
    <type id="highway.secondary_link" priority="6" numLanes="1" speed="22.22" disallow="tram rail_urban rail rail_electric rail_fast ship" oneway="0"/>
    <type id="highway.service" priority="1" numLanes="1" speed="5.56" allow="pedestrian delivery bicycle" oneway="0"/>
    <type id="highway.stairs" priority="1" numLanes="1" speed="1.39" allow="pedestrian" oneway="1" width="2.00"/>
    <type id="highway.step" priority="1" numLanes="1" speed="1.39" allow="pedestrian" oneway="1" width="2.00"/>
    <type id="highway.steps" priority="1" numLanes="1" speed="1.39" allow="pedestrian" oneway="1" width="2.00"/>
    <type id="highway.tertiary" priority="10" numLanes="1" speed="22.22" disallow="tram rail_urban rail rail_electric rail_fast ship" oneway="0"/>
    <type id="highway.tertiary_link" priority="5" numLanes="1" speed="22.22" disallow="tram rail_urban rail rail_electric rail_fast ship" oneway="0"/>
    <type id="highway.track" priority="1" numLanes="1" speed="5.56" allow="pedestrian motorcycle moped bicycle" oneway="0"/>
    <type id="highway.trunk" priority="13" numLanes="2" speed="27.78" disallow="pedestrian bicycle tram rail_urban rail rail_electric rail_fast ship" oneway="0"/>
    <type id="highway.trunk_link" priority="8" numLanes="1" speed="22.22" disallow="pedestrian bicycle tram rail_urban rail rail_electric rail_fast ship" oneway="0"/>
    <type id="highway.unclassified" priority="4" numLanes="1" speed="13.89" disallow="tram rail_urban rail rail_electric rail_fast ship" oneway="0"/>
    <type id="highway.unsurfaced" priority="1" numLanes="1" speed="8.33" disallow="tram rail_urban rail rail_electric rail_fast ship" oneway="0"/>
    <type id="railway.highspeed" priority="21" numLanes="1" speed="69.44" allow="rail_fast" oneway="1"/>
    <type id="railway.light_rail" priority="19" numLanes="1" speed="27.78" allow="rail_urban" oneway="1"/>
    <type id="railway.preserved" priority="16" numLanes="1" speed="27.78" allow="rail" oneway="1"/>
    <type id="railway.rail" priority="20" numLanes="1" speed="44.44" allow="rail" oneway="1"/>
    <type id="railway.subway" priority="18" numLanes="1" speed="27.78" allow="rail_urban" oneway="1"/>
    <type id="railway.tram" priority="17" numLanes="1" speed="13.89" allow="tram" oneway="1"/>

    <edge id=":28449354_0" function="internal">
        <lane id=":28449354_0_0" index="0" allow="delivery bicycle" speed="9.72" length="7.37" shape="91.42,62.72 92.10,64.68 93.08,65.78 94.42,66.66 96.21,67.97"/>
    </edge>
    <edge id=":28449354_1" function="internal">
        <lane id=":28449354_1_0" index="0" disallow="pedestrian tram rail_urban rail rail_electric rail_fast ship" speed="13.89" length="7.32" shape="91.42,62.72 92.72,69.97"/>
        <lane id=":28449354_1_1" index="1" disallow="pedestrian tram rail_urban rail rail_electric rail_fast ship" speed="13.89" length="7.32" shape="88.29,63.37 89.57,70.54"/>
    </edge>
    <edge id=":4041975619_0" function="internal">
        <lane id=":4041975619_0_0" index="0" allow="pedestrian bicycle" speed="2.89" length="2.92" width="2.00" shape="145.54,76.65 146.20,77.26 146.37,77.80 146.05,78.25 145.23,78.63"/>
    </edge>
    <edge id=":4926352843_0" function="internal">
        <lane id=":4926352843_0_0" index="0" allow="bicycle" speed="2.04" length="1.46" width="1.00" shape="120.77,231.43 120.57,231.84 120.34,231.99 120.07,231.89 119.78,231.55"/>
    </edge>
    <edge id=":5416202321_0" function="internal">
        <lane id=":5416202321_0_0" index="0" allow="pedestrian bicycle" speed="2.89" length="2.92" width="2.00" shape="106.80,73.00 106.13,72.40 105.95,71.87 106.27,71.41 107.09,71.02"/>
    </edge>
    <edge id=":5416202345_0" function="internal">
        <lane id=":5416202345_0_0" index="0" allow="bicycle" speed="2.04" length="1.46" width="1.00" shape="82.48,2.82 82.60,2.39 82.80,2.19 83.07,2.23 83.43,2.51"/>
    </edge>
    <edge id=":57749950_0" function="internal">
        <lane id=":57749950_0_0" index="0" allow="delivery bicycle" speed="9.72" length="9.90" shape="98.96,83.71 97.98,86.50 97.20,88.43 96.81,90.39 96.97,93.25"/>
    </edge>
    <edge id=":57749950_1" function="internal">
        <lane id=":57749950_1_0" index="0" disallow="pedestrian tram rail_urban rail rail_electric rail_fast ship" speed="13.89" length="9.84" shape="95.16,83.51 96.97,93.25"/>
        <lane id=":57749950_1_1" index="1" disallow="pedestrian tram rail_urban rail rail_electric rail_fast ship" speed="13.89" length="9.84" shape="92.01,84.07 93.80,93.69"/>
    </edge>
    <edge id=":cluster_251025052_5416202331_0" function="internal">
        <lane id=":cluster_251025052_5416202331_0_0" index="0" allow="bicycle" speed="3.35" length="2.38" width="1.00" shape="97.38,59.53 97.28,58.79 97.22,58.14 97.03,57.72 96.52,57.67"/>
    </edge>
    <edge id=":cluster_251025052_5416202331_1" function="internal">
        <lane id=":cluster_251025052_5416202331_1_0" index="0" allow="bicycle" speed="5.56" length="4.61" width="1.00" shape="97.38,59.53 96.26,55.06"/>
    </edge>
    <edge id=":cluster_251025052_5416202331_2" function="internal">
        <lane id=":cluster_251025052_5416202331_2_0" index="0" allow="bicycle" speed="2.04" length="0.73" width="1.00" shape="97.38,59.53 97.54,59.11 97.76,58.93"/>
    </edge>
    <edge id=":cluster_251025052_5416202331_9" function="internal">
        <lane id=":cluster_251025052_5416202331_9_0" index="0" allow="bicycle" speed="2.04" length="0.73" width="1.00" shape="97.76,58.93 98.03,59.00 98.36,59.31"/>
    </edge>
    <edge id=":cluster_251025052_5416202331_3" function="internal">
        <lane id=":cluster_251025052_5416202331_3_0" index="0" allow="bicycle" speed="5.56" length="6.34" width="1.00" shape="103.22,56.03 100.91,56.72 99.33,57.50 98.48,58.36 98.36,59.31"/>
    </edge>
    <edge id=":cluster_251025052_5416202331_4" function="internal">
        <lane id=":cluster_251025052_5416202331_4_0" index="0" allow="pedestrian delivery bicycle" speed="5.56" length="6.92" shape="102.97,54.96 96.24,56.61"/>
    </edge>
    <edge id=":cluster_251025052_5416202331_5" function="internal">
        <lane id=":cluster_251025052_5416202331_5_0" index="0" allow="bicycle" speed="5.56" length="4.58" width="1.00" shape="102.71,53.90 101.33,54.31 99.21,54.93 98.29,55.11"/>
    </edge>
    <edge id=":cluster_251025052_5416202331_10" function="internal">
        <lane id=":cluster_251025052_5416202331_10_0" index="0" allow="bicycle" speed="5.56" length="2.09" width="1.00" shape="98.29,55.11 97.24,55.32 96.26,55.06"/>
    </edge>
    <edge id=":cluster_251025052_5416202331_6" function="internal">
        <lane id=":cluster_251025052_5416202331_6_0" index="0" allow="bicycle" speed="5.56" length="4.65" width="1.00" shape="97.23,54.80 98.36,59.31"/>
    </edge>
    <edge id=":cluster_251025052_5416202331_7" function="internal">
        <lane id=":cluster_251025052_5416202331_7_0" index="0" allow="bicycle" speed="3.90" length="1.14" width="1.00" shape="97.23,54.80 97.43,55.92"/>
    </edge>
    <edge id=":cluster_251025052_5416202331_8" function="internal">
        <lane id=":cluster_251025052_5416202331_8_0" index="0" allow="bicycle" speed="2.04" length="0.73" width="1.00" shape="97.23,54.80 97.08,55.23 96.87,55.41"/>
    </edge>
    <edge id=":cluster_251025052_5416202331_11" function="internal">
        <lane id=":cluster_251025052_5416202331_11_0" index="0" allow="bicycle" speed="3.90" length="2.14" width="1.00" shape="97.43,55.92 97.37,56.78 97.07,57.36 96.52,57.67"/>
    </edge>
    <edge id=":cluster_251025052_5416202331_12" function="internal">
        <lane id=":cluster_251025052_5416202331_12_0" index="0" allow="bicycle" speed="2.04" length="0.73" width="1.00" shape="96.87,55.41 96.60,55.36 96.26,55.06"/>
    </edge>
    <edge id=":cluster_28114806_286726503_2952513732_2952513733_#2more_0" function="internal">
        <lane id=":cluster_28114806_286726503_2952513732_2952513733_#2more_0_0" index="0" allow="tram" speed="13.89" length="18.10" shape="53.73,74.85 46.83,58.12"/>
    </edge>
    <edge id=":cluster_28114806_286726503_2952513732_2952513733_#2more_1" function="internal">
        <lane id=":cluster_28114806_286726503_2952513732_2952513733_#2more_1_0" index="0" disallow="pedestrian tram rail_urban rail rail_electric rail_fast ship" speed="11.12" length="26.71" shape="58.90,69.71 50.86,71.35 44.39,70.68 39.47,67.72 36.10,62.45"/>
        <lane id=":cluster_28114806_286726503_2952513732_2952513733_#2more_1_1" index="1" disallow="pedestrian tram rail_urban rail rail_electric rail_fast ship" speed="10.08" length="21.78" shape="57.85,66.68 51.16,68.09 45.80,67.65 41.77,65.37 39.07,61.25"/>
    </edge>
    <edge id=":cluster_28114806_286726503_2952513732_2952513733_#2more_3" function="internal">
        <lane id=":cluster_28114806_286726503_2952513732_2952513733_#2more_3_0" index="0" disallow="pedestrian tram rail_urban rail rail_electric rail_fast ship" speed="4.51" length="8.28" shape="57.85,66.68 55.38,66.04 54.25,64.93 54.46,63.36 56.00,61.33"/>
    </edge>
    <edge id=":cluster_28114806_286726503_2952513732_2952513733_#2more_4" function="internal">
        <lane id=":cluster_28114806_286726503_2952513732_2952513733_#2more_4_0" index="0" allow="tram" speed="13.89" length="18.22" shape="50.33,56.71 57.01,73.66"/>
    </edge>
    <edge id=":cluster_28114806_286726503_2952513732_2952513733_#2more_5" function="internal">
        <lane id=":cluster_28114806_286726503_2952513732_2952513733_#2more_5_0" index="0" disallow="pedestrian tram rail_urban rail rail_electric rail_fast ship" speed="13.89" length="17.69" shape="35.06,81.63 33.40,76.72 32.64,73.23 31.86,69.74 30.16,64.84"/>
        <lane id=":cluster_28114806_286726503_2952513732_2952513733_#2more_5_1" index="1" disallow="pedestrian tram rail_urban rail rail_electric rail_fast ship" speed="13.89" length="17.69" shape="38.07,80.54 36.40,75.59 35.62,72.08 34.84,68.57 33.13,63.64"/>
        <lane id=":cluster_28114806_286726503_2952513732_2952513733_#2more_5_2" index="2" disallow="pedestrian tram rail_urban rail rail_electric rail_fast ship" speed="13.89" length="17.69" shape="41.08,79.45 39.40,74.47 38.61,70.94 37.82,67.41 36.10,62.45"/>
        <lane id=":cluster_28114806_286726503_2952513732_2952513733_#2more_5_3" index="3" disallow="pedestrian tram rail_urban rail rail_electric rail_fast ship" speed="13.89" length="17.69" shape="44.09,78.35 42.39,73.35 41.60,69.79 40.80,66.24 39.07,61.25"/>
    </edge>
    <edge id=":cluster_28114806_286726503_2952513732_2952513733_#2more_9" function="internal">
        <lane id=":cluster_28114806_286726503_2952513732_2952513733_#2more_9_0" index="0" disallow="pedestrian tram rail_urban rail rail_electric rail_fast ship" speed="10.03" length="16.96" shape="47.10,77.26 45.47,70.71 46.24,65.37 49.17,61.54"/>
        <lane id=":cluster_28114806_286726503_2952513732_2952513733_#2more_9_1" index="1" disallow="pedestrian tram rail_urban rail rail_electric rail_fast ship" speed="9.47" length="14.50" shape="47.10,77.26 45.98,72.02 47.09,67.62 50.24,64.26"/>
    </edge>
    <edge id=":cluster_28114806_286726503_2952513732_2952513733_#2more_11" function="internal">
        <lane id=":cluster_28114806_286726503_2952513732_2952513733_#2more_11_0" index="0" disallow="pedestrian tram rail_urban rail rail_electric rail_fast ship" speed="10.03" length="6.67" shape="49.17,61.54 49.41,61.23 54.96,58.30"/>
    </edge>
    <edge id=":cluster_28114806_286726503_2952513732_2952513733_#2more_12" function="internal">
        <lane id=":cluster_28114806_286726503_2952513732_2952513733_#2more_12_0" index="0" disallow="pedestrian tram rail_urban rail rail_electric rail_fast ship" speed="9.47" length="6.49" shape="50.24,64.26 50.43,64.05 56.00,61.33"/>
    </edge>
    <edge id=":cluster_282514172_286726504_3287948381_57749942_0" function="internal">
        <lane id=":cluster_282514172_286726504_3287948381_57749942_0_0" index="0" allow="bicycle" speed="5.56" length="12.80" width="1.00" shape="96.21,54.86 93.17,42.43"/>
    </edge>
    <edge id=":cluster_282514172_286726504_3287948381_57749942_1" function="internal">
        <lane id=":cluster_282514172_286726504_3287948381_57749942_1_0" index="0" allow="bicycle" speed="5.56" length="0.72" width="1.00" shape="96.21,54.86 96.14,54.15"/>
    </edge>
    <edge id=":cluster_282514172_286726504_3287948381_57749942_2" function="internal">
        <lane id=":cluster_282514172_286726504_3287948381_57749942_2_0" index="0" allow="bicycle" speed="5.56" length="0.76" width="1.00" shape="96.21,54.86 96.12,54.11"/>
    </edge>
    <edge id=":cluster_282514172_286726504_3287948381_57749942_3" function="internal">
        <lane id=":cluster_282514172_286726504_3287948381_57749942_3_0" index="0" allow="bicycle" speed="2.04" length="0.26" width="1.00" shape="96.21,54.86 96.30,54.62"/>
    </edge>
    <edge id=":cluster_282514172_286726504_3287948381_57749942_24" function="internal">
        <lane id=":cluster_282514172_286726504_3287948381_57749942_24_0" index="0" allow="bicycle" speed="5.56" length="16.48" width="1.00" shape="96.14,54.15 95.74,50.39 96.77,46.59 99.31,43.46 103.36,41.00"/>
    </edge>
    <edge id=":cluster_282514172_286726504_3287948381_57749942_25" function="internal">
        <lane id=":cluster_282514172_286726504_3287948381_57749942_25_0" index="0" allow="bicycle" speed="5.56" length="16.35" width="1.00" shape="96.12,54.11 95.54,49.57 96.68,46.14 99.65,44.58 104.44,44.88"/>
    </edge>
    <edge id=":cluster_282514172_286726504_3287948381_57749942_26" function="internal">
        <lane id=":cluster_282514172_286726504_3287948381_57749942_26_0" index="0" allow="bicycle" speed="2.04" length="1.20" width="1.00" shape="96.30,54.62 96.36,54.44 96.57,54.25 96.84,54.31 97.18,54.61"/>
    </edge>
    <edge id=":cluster_282514172_286726504_3287948381_57749942_4" function="internal">
        <lane id=":cluster_282514172_286726504_3287948381_57749942_4_0" index="0" allow="bicycle" speed="5.56" length="10.00" width="1.00" shape="94.13,42.18 94.95,43.09 96.76,43.20 99.56,42.50 103.36,41.00"/>
    </edge>
    <edge id=":cluster_282514172_286726504_3287948381_57749942_5" function="internal">
        <lane id=":cluster_282514172_286726504_3287948381_57749942_5_0" index="0" allow="bicycle" speed="5.56" length="10.71" width="1.00" shape="94.13,42.18 95.71,42.98 99.01,43.82 102.45,44.51 104.44,44.88"/>
    </edge>
    <edge id=":cluster_282514172_286726504_3287948381_57749942_6" function="internal">
        <lane id=":cluster_282514172_286726504_3287948381_57749942_6_0" index="0" allow="bicycle" speed="5.56" length="12.79" width="1.00" shape="94.13,42.18 97.18,54.61"/>
    </edge>
    <edge id=":cluster_282514172_286726504_3287948381_57749942_7" function="internal">
        <lane id=":cluster_282514172_286726504_3287948381_57749942_7_0" index="0" allow="bicycle" speed="2.04" length="0.73" width="1.00" shape="94.13,42.18 93.99,42.61 93.77,42.79"/>
    </edge>
    <edge id=":cluster_282514172_286726504_3287948381_57749942_27" function="internal">
        <lane id=":cluster_282514172_286726504_3287948381_57749942_27_0" index="0" allow="bicycle" speed="2.04" length="0.73" width="1.00" shape="93.77,42.79 93.50,42.73 93.17,42.43"/>
    </edge>
    <edge id=":cluster_282514172_286726504_3287948381_57749942_8" function="internal">
        <lane id=":cluster_282514172_286726504_3287948381_57749942_8_0" index="0" allow="bicycle" speed="3.43" length="3.83" width="1.00" shape="89.46,43.38 93.17,42.43"/>
    </edge>
    <edge id=":cluster_282514172_286726504_3287948381_57749942_9" function="internal">
        <lane id=":cluster_282514172_286726504_3287948381_57749942_9_0" index="0" allow="delivery bicycle" speed="8.18" length="16.77" shape="88.39,43.66 89.80,45.30 92.84,45.57 97.51,44.47 103.80,42.01"/>
    </edge>
    <edge id=":cluster_282514172_286726504_3287948381_57749942_10" function="internal">
        <lane id=":cluster_282514172_286726504_3287948381_57749942_10_0" index="0" allow="delivery bicycle" speed="9.72" length="15.98" shape="88.39,43.66 104.21,45.96"/>
    </edge>
    <edge id=":cluster_282514172_286726504_3287948381_57749942_11" function="internal">
        <lane id=":cluster_282514172_286726504_3287948381_57749942_11_0" index="0" allow="bicycle" speed="9.72" length="15.50" width="1.00" shape="86.36,44.18 88.67,48.20 92.01,50.31 95.23,51.96 97.18,54.61"/>
    </edge>
    <edge id=":cluster_282514172_286726504_3287948381_57749942_12" function="internal">
        <lane id=":cluster_282514172_286726504_3287948381_57749942_12_0" index="0" disallow="pedestrian tram rail_urban rail rail_electric rail_fast ship" speed="13.89" length="19.35" shape="82.19,45.25 84.37,50.60 86.95,53.85 89.44,57.12 91.38,62.52"/>
        <lane id=":cluster_282514172_286726504_3287948381_57749942_12_1" index="1" disallow="pedestrian tram rail_urban rail rail_electric rail_fast ship" speed="13.89" length="19.35" shape="82.19,45.25 88.25,63.18"/>
    </edge>
    <edge id=":cluster_282514172_286726504_3287948381_57749942_14" function="internal">
        <lane id=":cluster_282514172_286726504_3287948381_57749942_14_0" index="0" disallow="pedestrian tram rail_urban rail rail_electric rail_fast ship" speed="8.09" length="13.91" shape="82.19,45.25 83.47,50.85 84.04,54.96 83.92,57.57 83.08,58.69"/>
    </edge>
    <edge id=":cluster_282514172_286726504_3287948381_57749942_15" function="internal">
        <lane id=":cluster_282514172_286726504_3287948381_57749942_15_0" index="0" allow="bicycle" speed="8.45" length="14.82" width="1.00" shape="79.84,48.55 85.80,46.40 90.01,44.67 92.46,43.34 93.17,42.43"/>
    </edge>
    <edge id=":cluster_282514172_286726504_3287948381_57749942_16" function="internal">
        <lane id=":cluster_282514172_286726504_3287948381_57749942_16_0" index="0" allow="delivery bicycle" speed="9.72" length="24.79" shape="80.20,49.59 103.80,42.01"/>
    </edge>
    <edge id=":cluster_282514172_286726504_3287948381_57749942_17" function="internal">
        <lane id=":cluster_282514172_286726504_3287948381_57749942_17_0" index="0" allow="delivery bicycle" speed="9.72" length="13.07" shape="81.17,52.65 88.07,50.08 93.41,48.06"/>
    </edge>
    <edge id=":cluster_282514172_286726504_3287948381_57749942_18" function="internal">
        <lane id=":cluster_282514172_286726504_3287948381_57749942_18_0" index="0" allow="bicycle" speed="8.51" length="13.30" width="1.00" shape="81.53,53.69 87.82,51.91 92.53,51.47 94.48,52.04"/>
    </edge>
    <edge id=":cluster_282514172_286726504_3287948381_57749942_19" function="internal">
        <lane id=":cluster_282514172_286726504_3287948381_57749942_19_0" index="0" disallow="pedestrian tram rail_urban rail rail_electric rail_fast ship" speed="7.62" length="5.56" shape="81.17,52.65 83.32,52.72 85.21,54.49 85.56,55.23"/>
    </edge>
    <edge id=":cluster_282514172_286726504_3287948381_57749942_20" function="internal">
        <lane id=":cluster_282514172_286726504_3287948381_57749942_20_0" index="0" disallow="pedestrian tram rail_urban rail rail_electric rail_fast ship" speed="4.72" length="5.95" shape="81.17,52.65 83.92,53.44 85.15,54.71 84.94,56.02"/>
    </edge>
    <edge id=":cluster_282514172_286726504_3287948381_57749942_28" function="internal">
        <lane id=":cluster_282514172_286726504_3287948381_57749942_28_0" index="0" allow="delivery bicycle" speed="9.72" length="11.09" shape="93.41,48.06 94.40,47.68 99.87,46.10 104.21,45.96"/>
    </edge>
    <edge id=":cluster_282514172_286726504_3287948381_57749942_29" function="internal">
        <lane id=":cluster_282514172_286726504_3287948381_57749942_29_0" index="0" allow="bicycle" speed="8.51" length="3.93" width="1.00" shape="94.48,52.04 95.65,52.37 97.18,54.61"/>
    </edge>
    <edge id=":cluster_282514172_286726504_3287948381_57749942_30" function="internal">
        <lane id=":cluster_282514172_286726504_3287948381_57749942_30_0" index="0" disallow="pedestrian tram rail_urban rail rail_electric rail_fast ship" speed="7.62" length="8.43" shape="85.56,55.23 86.86,57.98 88.25,63.18"/>
    </edge>
    <edge id=":cluster_282514172_286726504_3287948381_57749942_31" function="internal">
        <lane id=":cluster_282514172_286726504_3287948381_57749942_31_0" index="0" disallow="pedestrian tram rail_urban rail rail_electric rail_fast ship" speed="4.72" length="3.31" shape="84.94,56.02 84.87,56.46 83.08,58.69"/>
    </edge>
    <edge id=":cluster_282514172_286726504_3287948381_57749942_21" function="internal">
        <lane id=":cluster_282514172_286726504_3287948381_57749942_21_0" index="0" allow="delivery bicycle" speed="6.42" length="8.42" shape="96.05,56.66 93.66,57.57 92.09,58.86 91.33,60.51 91.38,62.52"/>
    </edge>
    <edge id=":cluster_282514172_286726504_3287948381_57749942_22" function="internal">
        <lane id=":cluster_282514172_286726504_3287948381_57749942_22_0" index="0" allow="delivery bicycle" speed="9.72" length="13.11" shape="96.05,56.66 93.01,57.71 90.56,58.94 87.86,60.30 84.05,61.75"/>
        <lane id=":cluster_282514172_286726504_3287948381_57749942_22_1" index="1" allow="delivery bicycle" speed="9.72" length="13.11" shape="96.05,56.66 92.86,57.23 90.10,57.41 87.07,57.72 83.08,58.69"/>
    </edge>

    <edge id="-401793922" from="5416202321" to="4041975619" priority="1" type="highway.path" shape="103.92,71.58 136.10,76.19 145.39,77.64">
        <lane id="-401793922_0" index="0" allow="pedestrian bicycle" speed="5.56" length="38.87" width="2.00" shape="107.09,71.02 136.25,75.20 145.54,76.65">
            <param key="origId" value="401793922"/>
        </lane>
    </edge>
    <edge id="-561742173" from="4926352843" to="cluster_251025052_5416202331" priority="1" type="highway.cycleway" shape="120.28,231.49 113.87,177.20 105.48,109.53 103.42,92.23 102.36,81.75 100.39,71.23 98.81,63.22 97.12,56.38">
        <lane id="-561742173_0" index="0" allow="bicycle" speed="5.56" length="173.54" width="1.00" shape="119.78,231.55 113.38,177.26 104.98,109.59 102.93,92.28 101.87,81.82 99.90,71.33 98.32,63.33 97.38,59.53">
            <param key="origId" value="561742173 916807057"/>
        </lane>
        <param key="origTo" value="251025052"/>
    </edge>
    <edge id="-916807057#0" from="cluster_282514172_286726504_3287948381_57749942" to="5416202345" priority="1" type="highway.cycleway" shape="94.56,46.00 91.77,34.67 87.86,20.73 83.28,3.63 82.96,2.67">
        <lane id="-916807057#0_0" index="0" allow="bicycle" speed="5.56" length="41.03" width="1.00" shape="93.17,42.43 91.28,34.79 87.38,20.86 82.79,3.76 82.48,2.82">
            <param key="origId" value="916807057 384732623"/>
        </lane>
        <param key="origFrom" value="3287948381"/>
    </edge>
    <edge id="-916807057#1" from="cluster_251025052_5416202331" to="cluster_282514172_286726504_3287948381_57749942" priority="1" type="highway.cycleway" shape="97.12,56.38 96.17,52.67 95.60,50.30 94.56,46.00">
        <lane id="-916807057#1_0" index="0" allow="bicycle" speed="5.56" length="0.20" width="1.00" shape="96.26,55.06 96.21,54.86">
            <param key="origId" value="916807057"/>
        </lane>
        <param key="origFrom" value="251025052"/>
        <param key="origTo" value="3287948381"/>
    </edge>
    <edge id="1056718384#0" from="286406690" to="cluster_282514172_286726504_3287948381_57749942" name="Willy-Brandt-Platz" priority="12" type="highway.primary" spreadType="center" shape="74.02,9.43 85.10,43.69 86.49,49.12">
        <lane id="1056718384#0_0" index="0" disallow="pedestrian tram rail_urban rail rail_electric rail_fast ship" speed="13.89" length="36.79" shape="77.07,8.45 88.17,42.80 88.39,43.66">
            <param key="origId" value="1056718384"/>
        </lane>
        <lane id="1056718384#0_1" index="1" disallow="pedestrian tram rail_urban rail rail_electric rail_fast ship" speed="13.89" length="36.79" shape="74.02,9.43 85.10,43.69 85.29,44.45">
            <param key="origId" value="1056718384"/>
        </lane>
        <lane id="1056718384#0_2" index="2" disallow="pedestrian tram rail_urban rail rail_electric rail_fast ship" speed="13.89" length="36.79" shape="70.98,10.42 82.02,44.58 82.19,45.25">
            <param key="origId" value="1056718384"/>
        </lane>
        <param key="origTo" value="286726504"/>
        <param key="ref" value="L 295"/>
    </edge>
    <edge id="25076207#0" from="cluster_282514172_286726504_3287948381_57749942" to="28449354" name="Willy-Brandt-Platz" priority="12" type="highway.primary" spreadType="center" shape="88.91,58.53 89.73,62.44">
        <lane id="25076207#0_0" index="0" disallow="pedestrian tram rail_urban rail rail_electric rail_fast ship" speed="13.89" length="0.20" shape="91.38,62.52 91.42,62.72">
            <param key="origId" value="25076207"/>
        </lane>
        <lane id="25076207#0_1" index="1" disallow="pedestrian tram rail_urban rail rail_electric rail_fast ship" speed="13.89" length="0.20" shape="88.25,63.18 88.29,63.37">
            <param key="origId" value="25076207"/>
        </lane>
        <param key="origFrom" value="282514172"/>
        <param key="ref" value="L 295"/>
    </edge>
    <edge id="25076207#1" from="28449354" to="57749950" name="Willy-Brandt-Platz" priority="12" type="highway.primary" spreadType="center" shape="89.73,62.44 92.69,78.74 95.62,95.20">
        <lane id="25076207#1_0" index="0" disallow="pedestrian tram rail_urban rail rail_electric rail_fast ship" speed="13.89" length="13.75" shape="92.72,69.97 94.26,78.45 95.16,83.51">
            <param key="origId" value="25076207"/>
        </lane>