<?xml version="1.0" encoding="UTF-8"?>

<!-- generated on 2022-03-04 10:35:29 by Eclipse SUMO netedit Version v1_12_0+1137-e9106068858
-->

<additional xmlns:xsi="http://www.w3.org/2001/XMLSchema-instance" xsi:noNamespaceSchemaLocation="http://sumo.dlr.de/xsd/additional_file.xsd">
    <!-- StoppingPlaces -->
    <trainStop id="ts_0" lane="gneE2_1" startPos="12.00" endPos="22.00" parkingLength="10.00"/>
</additional>
