<?xml version="1.0" encoding="UTF-8"?>

<!-- generated on 2023-02-14 13:00:45 by Eclipse SUMO netedit Version v1_16_0+0177-c72433bc6bd
-->

<additional xmlns:xsi="http://www.w3.org/2001/XMLSchema-instance" xsi:noNamespaceSchemaLocation="http://sumo.dlr.de/xsd/additional_file.xsd">
    <!-- StoppingPlaces -->
    <trainStop id="ts_0" lane="center1_1" startPos="14.00" endPos="24.00" parkingLength="10.00"/>
</additional>
