<?xml version="1.0" encoding="UTF-8"?>

<!-- generated on 02.08.2018 12:55:31 by Eclipse SUMO netedit Version 7115a4b324
<configuration xmlns:xsi="http://www.w3.org/2001/XMLSchema-instance" xsi:noNamespaceSchemaLocation="http://sumo.dlr.de/xsd/netconvertConfiguration.xsd">

    <input>
        <sumo-additionals-file value="C:/Users/SUMO-Test/.texttest/tmp/netedit.gui.02Aug125441.1840/netedit.gui/additionalElements/e1detector/inspect_selection_generic\input_additionals.add.xml"/>
        <sumo-net-file value="C:/Users/SUMO-Test/.texttest/tmp/netedit.gui.02Aug125441.1840/netedit.gui/additionalElements/e1detector/inspect_selection_generic\input_net.net.xml"/>
    </input>

    <output>
        <additionals-output value="C:/Users/SUMO-Test/.texttest/tmp/netedit.gui.02Aug125441.1840/netedit.gui/additionalElements/e1detector/inspect_selection_generic\additionals.xml"/>
        <shapes-output value="C:/Users/SUMO-Test/.texttest/tmp/netedit.gui.02Aug125441.1840/netedit.gui/additionalElements/e1detector/inspect_selection_generic\shapes.xml"/>
        <output-file value="C:/Users/SUMO-Test/.texttest/tmp/netedit.gui.02Aug125441.1840/netedit.gui/additionalElements/e1detector/inspect_selection_generic\net.net.xml"/>
    </output>

    <processing>
        <no-turnarounds value="true"/>
        <offset.disable-normalization value="true"/>
        <lefthand value="false"/>
        <junctions.corner-detail value="5"/>
        <rectangular-lane-cut value="false"/>
        <walkingareas value="false"/>
    </processing>

    <visualisation>
        <gui-settings-file value="C:/Users/SUMO-Test/.texttest/tmp/netedit.gui.02Aug125441.1840/netedit.gui/additionalElements/e1detector/inspect_selection_generic\gui-settings.xml"/>
        <window-size value="700,500"/>
        <window-pos value="50,50"/>
        <gui-testing value="true"/>
        <gui-testing-debug value="true"/>
    </visualisation>

    <report>
        <no-warnings value="true"/>
        <error-log value="C:/Users/SUMO-Test/.texttest/tmp/netedit.gui.02Aug125441.1840/netedit.gui/additionalElements/e1detector/inspect_selection_generic\log.txt"/>
    </report>

</configuration>
-->

<additional xmlns:xsi="http://www.w3.org/2001/XMLSchema-instance" xsi:noNamespaceSchemaLocation="http://sumo.dlr.de/xsd/additional_file.xsd">
    <e1Detector id="E1_A" name="DetectorA" vTypes="Type1 Type2 Type3" lane="gneE0_0" pos="6.00" freq="120.00" file="e1Detector_01.txt">
        <param key="keyFinal1" value="value1"/>
        <param key="keyFinal2" value="value2"/>
        <param key="keyFinal3" value="value3"/>
    </e1Detector>
    <e1Detector id="E1_B" name="DetectorB" vTypes="Type4 Type5" lane="gneE0_0" pos="10.00" freq="90.00" file="e1Detector_01.txt">
        <param key="keyFinal1" value="value1"/>
        <param key="keyFinal2" value="value2"/>
        <param key="keyFinal3" value="value3"/>
    </e1Detector>
</additional>
