<additional xmlns:xsi="http://www.w3.org/2001/XMLSchema-instance" xsi:noNamespaceSchemaLocation="http://sumo.dlr.de/xsd/additional_file.xsd">

    <!-- non valid Lane (missing) -->
    <laneAreaDetector id="E2_01" pos="4" length="10.00" period="100.00" file="fileA.txt" timeThreshold="1.00" speedThreshold="1.39" jamThreshold="10.00" friendlyPos="0"/>

    <!-- non valid lane (dummy Lane) -->
    <laneAreaDetector id="E2_02" lane="dummyLane" pos="3" length="10.00" period="100.00" file="fileA.txt" timeThreshold="1.00" speedThreshold="1.39" jamThreshold="10.00" friendlyPos="0"/>

    <!-- valid lane -->
    <laneAreaDetector id="E2_03" lane="center0_0" pos="1" length="10.00" period="100.00" file="fileA.txt" timeThreshold="1.00" speedThreshold="1.39" jamThreshold="10.00" friendlyPos="0"/>

</additional>
