<?xml version="1.0" encoding="UTF-8"?>

<!-- generated on Mon Feb 17 15:31:08 2020 by Eclipse SUMO netconvert Version v1_5_0+0130-ceb0a01
This data file and the accompanying materials
are made available under the terms of the Eclipse Public License v2.0
which accompanies this distribution, and is available at
http://www.eclipse.org/legal/epl-v20.html
SPDX-License-Identifier: EPL-2.0
<configuration xmlns:xsi="http://www.w3.org/2001/XMLSchema-instance" xsi:noNamespaceSchemaLocation="http://sumo.dlr.de/xsd/netconvertConfiguration.xsd">

    <input>
        <node-files value="input_plain.nod.xml"/>
        <edge-files value="input_plain.edg.xml"/>
    </input>

    <output>
        <write-license value="true"/>
        <output-file value="net.net.xml"/>
        <plain-output-prefix value="plain"/>
    </output>

    <junctions>
        <no-turnarounds value="true"/>
    </junctions>

    <pedestrian>
        <crossings.guess value="true"/>
    </pedestrian>

    <report>
        <xml-validation value="never"/>
        <aggregate-warnings value="5"/>
    </report>

</configuration>
-->

<net version="1.6" junctionCornerDetail="5" walkingareas="true" limitTurnSpeed="5.50" xmlns:xsi="http://www.w3.org/2001/XMLSchema-instance" xsi:noNamespaceSchemaLocation="http://sumo.dlr.de/xsd/net_file.xsd">

    <location netOffset="100.00,0.00" convBoundary="0.00,0.00,200.00,0.00" origBoundary="-10000000000.00,-10000000000.00,10000000000.00,10000000000.00" projParameter="!"/>

    <edge id=":C_0" function="internal">
        <lane id=":C_0_0" index="0" allow="passenger" speed="13.89" length="0.10" shape="100.00,4.80 100.00,4.80"/>
        <lane id=":C_0_1" index="1" allow="passenger" speed="13.89" length="0.10" shape="100.00,1.60 100.00,1.60"/>
    </edge>
    <edge id=":C_2" function="internal">
        <lane id=":C_2_0" index="0" allow="passenger" speed="13.89" length="0.10" shape="100.00,-4.80 100.00,-4.80"/>
        <lane id=":C_2_1" index="1" allow="passenger" speed="13.89" length="0.10" shape="100.00,-1.60 100.00,-1.60"/>
    </edge>
    <edge id=":C_c0" function="crossing" crossingEdges="CE EC">
        <lane id=":C_c0_0" index="0" allow="pedestrian" speed="1.00" length="12.80" width="4.00" shape="98.00,-6.40 98.00,6.40"/>
    </edge>
    <edge id=":C_w0" function="walkingarea">
        <lane id=":C_w0_0" index="0" allow="pedestrian" speed="1.00" length="3.61" width="4.00" shape="100.00,7.90 100.00,10.90 100.00,10.90 100.00,7.90 100.00,6.40 96.00,6.40"/>
    </edge>
    <edge id=":C_w1" function="walkingarea">
        <lane id=":C_w1_0" index="0" allow="pedestrian" speed="1.00" length="3.61" width="4.00" shape="96.00,-6.40 100.00,-6.40 100.00,-7.90 100.00,-10.90 100.00,-10.90 100.00,-7.90"/>
    </edge>
    <edge id=":E_w0" function="walkingarea">
        <lane id=":E_w0_0" index="0" allow="pedestrian" speed="1.00" length="18.80" width="3.00" shape="200.00,7.90 200.00,10.90 200.00,-10.90 200.00,-7.90"/>
    </edge>
    <edge id=":W_w0" function="walkingarea">
        <lane id=":W_w0_0" index="0" allow="pedestrian" speed="1.00" length="18.80" width="3.00" shape="0.00,-7.90 0.00,-10.90 0.00,10.90 0.00,7.90"/>
    </edge>

    <edge id="CE" from="C" to="E" priority="2">
        <lane id="CE_0" index="0" allow="pedestrian" speed="13.89" length="100.00" width="3.00" shape="100.00,-9.40 200.00,-9.40"/>
        <lane id="CE_1" index="1" disallow="all" speed="13.89" length="100.00" width="1.50" shape="100.00,-7.15 200.00,-7.15"/>
        <lane id="CE_2" index="2" allow="passenger" speed="13.89" length="100.00" shape="100.00,-4.80 200.00,-4.80"/>
        <lane id="CE_3" index="3" allow="passenger" speed="13.89" length="100.00" shape="100.00,-1.60 200.00,-1.60"/>
    </edge>
    <edge id="CW" from="C" to="W" priority="2">
        <lane id="CW_0" index="0" allow="pedestrian" speed="13.89" length="100.00" width="3.00" shape="100.00,9.40 0.00,9.40"/>
        <lane id="CW_1" index="1" disallow="all" speed="13.89" length="100.00" width="1.50" shape="100.00,7.15 0.00,7.15"/>
        <lane id="CW_2" index="2" allow="passenger" speed="13.89" length="100.00" shape="100.00,4.80 0.00,4.80"/>
        <lane id="CW_3" index="3" allow="passenger" speed="13.89" length="100.00" shape="100.00,1.60 0.00,1.60"/>
    </edge>
    <edge id="EC" from="E" to="C" priority="2">
        <lane id="EC_0" index="0" allow="pedestrian" speed="13.89" length="100.00" width="3.00" shape="200.00,9.40 100.00,9.40"/>
        <lane id="EC_1" index="1" disallow="all" speed="13.89" length="100.00" width="1.50" shape="200.00,7.15 100.00,7.15"/>
        <lane id="EC_2" index="2" allow="passenger" speed="13.89" length="100.00" shape="200.00,4.80 100.00,4.80"/>
        <lane id="EC_3" index="3" allow="passenger" speed="13.89" length="100.00" shape="200.00,1.60 100.00,1.60"/>
    </edge>
    <edge id="WC" from="W" to="C" priority="2">
        <lane id="WC_0" index="0" allow="pedestrian" speed="13.89" length="100.00" width="3.00" shape="0.00,-9.40 100.00,-9.40"/>
        <lane id="WC_1" index="1" disallow="all" speed="13.89" length="100.00" width="1.50" shape="0.00,-7.15 100.00,-7.15"/>
        <lane id="WC_2" index="2" allow="passenger" speed="13.89" length="100.00" shape="0.00,-4.80 100.00,-4.80"/>
        <lane id="WC_3" index="3" allow="passenger" speed="13.89" length="100.00" shape="0.00,-1.60 100.00,-1.60"/>
    </edge>

    <junction id="C" type="priority" x="100.00" y="0.00" incLanes="EC_0 EC_1 EC_2 EC_3 WC_0 WC_1 WC_2 WC_3 :C_w1_0" intLanes=":C_0_0 :C_0_1 :C_2_0 :C_2_1 :C_c0_0" shape="100.00,10.90 100.00,-10.90 100.00,10.90">
        <request index="0" response="00000" foes="10000" cont="0"/>
        <request index="1" response="00000" foes="10000" cont="0"/>
        <request index="2" response="00000" foes="10000" cont="0"/>
        <request index="3" response="00000" foes="10000" cont="0"/>
        <request index="4" response="01111" foes="01111" cont="0"/>
    </junction>
    <junction id="E" type="dead_end" x="200.00" y="0.00" incLanes="CE_0 CE_1 CE_2 CE_3" intLanes="" shape="200.00,0.00 200.00,-10.90 200.00,0.00"/>
    <junction id="W" type="dead_end" x="0.00" y="0.00" incLanes="CW_0 CW_1 CW_2 CW_3" intLanes="" shape="0.00,0.00 0.00,10.90 0.00,0.00"/>

    <connection from="EC" to="CW" fromLane="2" toLane="2" via=":C_0_0" dir="s" state="M"/>
    <connection from="EC" to="CW" fromLane="3" toLane="3" via=":C_0_1" dir="s" state="M"/>
    <connection from="WC" to="CE" fromLane="2" toLane="2" via=":C_2_0" dir="s" state="M"/>
    <connection from="WC" to="CE" fromLane="3" toLane="3" via=":C_2_1" dir="s" state="M"/>

    <connection from=":C_0" to="CW" fromLane="0" toLane="2" dir="s" state="M"/>
    <connection from=":C_0" to="CW" fromLane="1" toLane="3" dir="s" state="M"/>
    <connection from=":C_2" to="CE" fromLane="0" toLane="2" dir="s" state="M"/>
    <connection from=":C_2" to="CE" fromLane="1" toLane="3" dir="s" state="M"/>

    <connection from=":C_c0" to=":C_w0" fromLane="0" toLane="0" dir="s" state="M"/>
    <connection from=":C_w0" to="CW" fromLane="0" toLane="0" dir="s" state="M"/>
    <connection from="EC" to=":C_w0" fromLane="0" toLane="0" dir="s" state="M"/>
    <connection from=":C_w1" to=":C_c0" fromLane="0" toLane="0" dir="s" state="m"/>
    <connection from=":C_w1" to="CE" fromLane="0" toLane="0" dir="s" state="M"/>
    <connection from="WC" to=":C_w1" fromLane="0" toLane="0" dir="s" state="M"/>
    <connection from=":E_w0" to="EC" fromLane="0" toLane="0" dir="s" state="M"/>
    <connection from="CE" to=":E_w0" fromLane="0" toLane="0" dir="s" state="M"/>
    <connection from=":W_w0" to="WC" fromLane="0" toLane="0" dir="s" state="M"/>
    <connection from="CW" to=":W_w0" fromLane="0" toLane="0" dir="s" state="M"/>
</net>
