<flowdefs>

	<flow id="0" from="beg" to="end" begin="0" end="1" number="100"/>

</flowdefs>
