<?xml version="1.0" encoding="UTF-8"?>

<!-- generated on 2022-04-04 15:21:22 by Eclipse SUMO netedit Version v1_12_0+1915-27c190f6120
-->

<routes xmlns:xsi="http://www.w3.org/2001/XMLSchema-instance" xsi:noNamespaceSchemaLocation="http://sumo.dlr.de/xsd/routes_file.xsd">
    <!-- Routes -->
    <route id="route_0" edges="gneE0 gneE1" color="yellow">
        <stop busStop="busStopA" duration="70.00" until="12.00" extension="3.50" triggered="person" parking="1" expected="perA perB" permitted="A B" tripId="tripA" line="lineA"/>
        <stop busStop="busStopB" duration="60.00" until="20.00" extension="3.50" triggered="container" parking="1" expected="conA conB" permitted="C D" tripId="tripB" line="lineB"/>
    </route>
</routes>
