<?xml version="1.0" encoding="UTF-8"?>

<!-- generated on 06/06/14 15:02:54 by SUMO netconvert Version dev-SVN-r16543
<?xml version="1.0" encoding="UTF-8"?>

<configuration xmlns:xsi="http://www.w3.org/2001/XMLSchema-instance" xsi:noNamespaceSchemaLocation="http://sumo-sim.org/xsd/netconvertConfiguration.xsd">

    <input>
        <node-files value=".\traci\set_variable\Vehicle\rerouting\input_net.nod.xml"/>
        <edge-files value=".\traci\set_variable\Vehicle\rerouting\input_net.edg.xml"/>
    </input>

    <output>
        <output-file value=".\traci\set_variable\Vehicle\rerouting\net.net.xml"/>
    </output>

    <processing>
        <no-internal-links value="true"/>
    </processing>

    <report>
        <verbose value="true"/>
    </report>

</configuration>
-->

<net version="0.13" xmlns:xsi="http://www.w3.org/2001/XMLSchema-instance" xsi:noNamespaceSchemaLocation="http://sumo-sim.org/xsd/net_file.xsd">

    <location netOffset="500.00,500.00" convBoundary="0.00,0.00,2500.00,1000.00" origBoundary="-500.00,-500.00,2000.00,500.00" projParameter="!"/>

    <edge id="beg" from="absBeg" to="beg" priority="-1">
        <lane id="beg_0" index="0" speed="27.80" length="500.00" shape="0.00,495.05 495.25,495.05"/>
        <lane id="beg_1" index="1" speed="27.80" length="500.00" shape="0.00,498.35 495.25,498.35"/>
    </edge>
    <edge id="beg2left" from="beg" to="begleft" priority="-1">
        <lane id="beg2left_0" index="0" speed="27.80" length="506.52" shape="501.65,501.45 501.65,991.95"/>
    </edge>
    <edge id="beg2right" from="beg" to="begright" priority="-1">
        <lane id="beg2right_0" index="0" speed="27.80" length="500.00" shape="498.35,491.95 498.35,0.00"/>
    </edge>
    <edge id="end" from="end" to="absEnd" priority="-1">
        <lane id="end_0" index="0" speed="27.80" length="500.00" shape="1504.75,495.05 2000.00,495.05"/>
        <lane id="end_1" index="1" speed="27.80" length="500.00" shape="1504.75,498.35 2000.00,498.35"/>
    </edge>
    <edge id="left+right" from="begleft" to="endleft" priority="0">
        <lane id="left+right_0" index="0" speed="27.80" length="1013.03" shape="504.75,995.05 1495.25,995.05"/>
        <lane id="left+right_1" index="1" speed="27.80" length="1013.03" shape="504.75,998.35 1495.25,998.35"/>
    </edge>
    <edge id="left2end" from="endleft" to="end" priority="-1">
        <lane id="left2end_0" index="0" speed="27.80" length="506.52" shape="1498.35,991.95 1498.35,501.45"/>
    </edge>
    <edge id="middle" from="beg" to="end" priority="-1">
        <lane id="middle_0" index="0" speed="13.90" length="1000.00" shape="504.75,498.35 1495.25,498.35"/>
    </edge>
    <edge id="rend" from="absEnd" to="rabsEnd" priority="-1">
        <lane id="rend_0" index="0" speed="27.80" length="500.00" shape="2000.00,495.05 2500.00,495.05"/>
        <lane id="rend_1" index="1" speed="27.80" length="500.00" shape="2000.00,498.35 2500.00,498.35"/>
    </edge>
    <edge id="right2end" from="endright" to="end" priority="-1">
        <lane id="right2end_0" index="0" speed="27.80" length="500.00" shape="1501.65,0.00 1501.65,491.95"/>
    </edge>

    <junction id="absBeg" type="unregulated" x="0.00" y="500.00" incLanes="" intLanes="" shape="-0.00,499.95 -0.00,493.45"/>
    <junction id="absEnd" type="priority" x="2000.00" y="500.00" incLanes="end_0 end_1" intLanes="" shape="2000.00,499.95 2000.00,493.45 2000.00,499.95">
        <request index="0" response="00" foes="00"/>
        <request index="1" response="00" foes="00"/>
    </junction>
    <junction id="beg" type="priority" x="500.00" y="500.00" incLanes="beg_0 beg_1" intLanes="" shape="500.05,501.45 503.25,501.45 504.75,499.95 504.75,496.75 499.95,491.95 496.75,491.95 495.25,493.45 495.25,499.95">
        <request index="0" response="000" foes="000"/>
        <request index="1" response="000" foes="000"/>
        <request index="2" response="000" foes="000"/>
    </junction>
    <junction id="begleft" type="priority" x="500.00" y="1000.00" incLanes="beg2left_0" intLanes="" shape="504.75,999.95 504.75,993.45 503.25,991.95 500.05,991.95">
        <request index="0" response="00" foes="00"/>
        <request index="1" response="00" foes="00"/>
    </junction>
    <junction id="begright" type="unregulated" x="500.00" y="0.00" incLanes="beg2right_0" intLanes="" shape="496.75,0.00 499.95,0.00"/>
    <junction id="end" type="priority" x="1500.00" y="500.00" incLanes="left2end_0 right2end_0 middle_0" intLanes="" shape="1496.75,501.45 1499.95,501.45 1504.75,499.95 1504.75,493.45 1503.25,491.95 1500.05,491.95 1495.25,496.75 1495.25,499.95">
        <request index="0" response="010" foes="110"/>
        <request index="1" response="000" foes="101"/>
        <request index="2" response="011" foes="011"/>
    </junction>
    <junction id="endleft" type="priority" x="1500.00" y="1000.00" incLanes="left+right_0 left+right_1" intLanes="" shape="1499.95,991.95 1496.75,991.95 1495.25,993.45 1495.25,999.95">
        <request index="0" response="0" foes="0"/>
    </junction>
    <junction id="endright" type="unregulated" x="1500.00" y="0.00" incLanes="" intLanes="" shape="1500.05,-0.00 1503.25,-0.00"/>
    <junction id="rabsEnd" type="unregulated" x="2500.00" y="500.00" incLanes="rend_0 rend_1" intLanes="" shape="2500.00,493.45 2500.00,499.95"/>

    <connection from="beg" to="beg2right" fromLane="0" toLane="0" dir="r" state="M"/>
    <connection from="beg" to="middle" fromLane="0" toLane="0" dir="s" state="M"/>
    <connection from="beg" to="beg2left" fromLane="1" toLane="0" dir="l" state="M"/>
    <connection from="beg2left" to="left+right" fromLane="0" toLane="0" dir="r" state="M"/>
    <connection from="beg2left" to="left+right" fromLane="0" toLane="1" dir="r" state="M"/>
    <connection from="end" to="rend" fromLane="0" toLane="0" dir="s" state="M"/>
    <connection from="end" to="rend" fromLane="1" toLane="1" dir="s" state="M"/>
    <connection from="left+right" to="left2end" fromLane="0" toLane="0" dir="r" state="M"/>
    <connection from="left2end" to="end" fromLane="0" toLane="1" dir="l" state="m"/>
    <connection from="middle" to="end" fromLane="0" toLane="1" dir="s" state="m"/>
    <connection from="right2end" to="end" fromLane="0" toLane="0" dir="r" state="M"/>

</net>
