<?xml version="1.0" encoding="UTF-8"?>

<!-- generated on 2021-08-23 12:17:06 by Eclipse SUMO sumo Version v1_10_0+0129-6ada7b0
This data file and the accompanying materials
are made available under the terms of the Eclipse Public License v2.0
which accompanies this distribution, and is available at
http://www.eclipse.org/legal/epl-v20.html
SPDX-License-Identifier: EPL-2.0
<configuration xmlns:xsi="http://www.w3.org/2001/XMLSchema-instance" xsi:noNamespaceSchemaLocation="http://sumo.dlr.de/xsd/sumoConfiguration.xsd">

    <input>
        <net-file value="net.net.xml"/>
        <route-files value="input_routes.rou.xml"/>
    </input>

    <output>
        <write-license value="true"/>
        <stop-output value="stopinfos.xml"/>
    </output>

    <processing>
        <step-method.ballistic value="true"/>
        <default.carfollowmodel value="EIDM"/>
        <default.speeddev value="0"/>
    </processing>

    <report>
        <xml-validation value="never"/>
        <xml-validation.routes value="never"/>
        <no-step-log value="true"/>
    </report>

</configuration>
-->

<stops xmlns:xsi="http://www.w3.org/2001/XMLSchema-instance" xsi:noNamespaceSchemaLocation="http://sumo.dlr.de/xsd/stopinfo_file.xsd">
    <stopinfo id="0" type="default" lane="gneE0_0" pos="220.25" parking="0" started="16.00" ended="26.00" delay="-1.00" initialPersons="0" loadedPersons="0" unloadedPersons="0" initialContainers="0" loadedContainers="0" unloadedContainers="0"/>
</stops>
