<?xml version="1.0" encoding="UTF-8"?>

<!-- generated on 2025-06-20 14:34:01 by Eclipse SUMO netedit Version v1_23_1+0695-b67250f6746
<neteditConfiguration xmlns:xsi="http://www.w3.org/2001/XMLSchema-instance" xsi:noNamespaceSchemaLocation="http://sumo.dlr.de/xsd/neteditConfiguration.xsd">

    <input>
        <sumocfg-file value="test.sumocfg"/>
        <route-files value="input_routes.rou.xml"/>
        <sumo-net-file value="net.net.xml"/>
    </input>

    <output>
        <output-file value="net.net.xml"/>
    </output>

    <processing>
        <geometry.min-radius.fix.railways value="false"/>
        <geometry.avoid-overlap value="false"/>
        <geometry.max-grade.fix value="false"/>
        <offset.disable-normalization value="true"/>
        <lefthand value="0"/>
    </processing>

    <junctions>
        <no-turnarounds value="true"/>
        <junctions.corner-detail value="5"/>
        <junctions.limit-turn-speed value="5.50"/>
        <rectangular-lane-cut value="0"/>
    </junctions>

    <pedestrian>
        <walkingareas value="0"/>
    </pedestrian>

    <netedit>
        <ignore.routeelements value="false"/>
    </netedit>

</neteditConfiguration>
-->

<net version="1.20" junctionCornerDetail="5" limitTurnSpeed="5.50" avoidOverlap="0" xmlns:xsi="http://www.w3.org/2001/XMLSchema-instance" xsi:noNamespaceSchemaLocation="http://sumo.dlr.de/xsd/net_file.xsd">

    <location netOffset="0.00,0.00" convBoundary="-100.00,0.00,200.00,0.00" origBoundary="-10000000000.00,-10000000000.00,10000000000.00,10000000000.00" projParameter="!"/>

    <edge id=":J1_0" function="internal">
        <lane id=":J1_0_0" index="0" speed="27.78" length="8.21" shape="-4.00,0.00 -1.60,-0.25 0.00,-0.80 1.60,-1.35 4.00,-1.60"/>
    </edge>
    <edge id=":J2_0" function="internal">
        <lane id=":J2_0_0" index="0" speed="27.78" length="8.21" shape="16.00,-1.60 18.40,-1.35 20.00,-0.80 21.60,-0.25 24.00,0.00"/>
    </edge>

    <edge id="E0" from="J0" to="J1" priority="-1" spreadType="center">
        <lane id="E0_0" index="0" speed="27.78" length="96.00" shape="-100.00,0.00 -4.00,0.00"/>
    </edge>
    <edge id="E1" from="J1" to="J2" priority="-1" spreadType="center">
        <lane id="E1_0" index="0" speed="27.78" length="12.00" shape="4.00,-1.60 16.00,-1.60"/>
        <lane id="E1_1" index="1" speed="27.78" length="12.00" shape="4.00,1.60 16.00,1.60"/>
    </edge>
    <edge id="E2" from="J2" to="J3" priority="-1" spreadType="center">
        <lane id="E2_0" index="0" speed="27.78" length="176.00" shape="24.00,0.00 200.00,0.00"/>
    </edge>

    <junction id="J0" type="dead_end" x="-100.00" y="0.00" incLanes="" intLanes="" shape="-100.00,1.60 -100.00,-1.60"/>
    <junction id="J1" type="priority" x="0.00" y="0.00" incLanes="E0_0" intLanes=":J1_0_0" shape="4.00,3.20 4.00,-3.20 1.02,-2.79 -1.02,-2.01 -2.27,-1.72 -4.00,-1.60 -4.00,1.60 -1.02,2.01 1.02,2.79 2.27,3.08">
        <request index="0" response="0" foes="0" cont="0"/>
    </junction>
    <junction id="J2" type="priority" x="20.00" y="0.00" incLanes="E1_0 E1_1" intLanes=":J2_0_0" shape="24.00,1.60 24.00,-1.60 21.02,-2.01 18.98,-2.79 17.73,-3.08 16.00,-3.20 16.00,3.20 18.98,2.79 21.02,2.01 22.27,1.72">
        <request index="0" response="0" foes="0" cont="0"/>
    </junction>
    <junction id="J3" type="dead_end" x="200.00" y="0.00" incLanes="E2_0" intLanes="" shape="200.00,-1.60 200.00,1.60"/>

    <connection from="E0" to="E1" fromLane="0" toLane="0" via=":J1_0_0" dir="s" state="M"/>
    <connection from="E1" to="E2" fromLane="0" toLane="0" via=":J2_0_0" dir="s" state="M"/>

    <connection from=":J1_0" to="E1" fromLane="0" toLane="0" dir="s" state="M"/>
    <connection from=":J2_0" to="E2" fromLane="0" toLane="0" dir="s" state="M"/>

</net>
