# Format matches Extraction version: V6.5 
# <?xml version="1.0" encoding="UTF-8"?>
# 
# <!-- generated on 2024-06-12 07:52:39 by Eclipse SUMO netconvert Version v1_20_0+0443-233e48e5c88
# This data file and the accompanying materials
# are made available under the terms of the Eclipse Public License v2.0
# which accompanies this distribution, and is available at
# http://www.eclipse.org/legal/epl-v20.html
# This file may also be made available under the following Secondary
# Licenses when the conditions for such availability set forth in the Eclipse
# Public License 2.0 are satisfied: GNU General Public License, version 2
# or later which is available at
# https://www.gnu.org/licenses/old-licenses/gpl-2.0-standalone.html
# SPDX-License-Identifier: EPL-2.0 OR GPL-2.0-or-later
# -->
# 
# <netconvertConfiguration xmlns:xsi="http://www.w3.org/2001/XMLSchema-instance" xsi:noNamespaceSchemaLocation="http://sumo.dlr.de/xsd/netconvertConfiguration.xsd">
# 
#     <input>
#         <dlr-navteq-prefix value="elmar"/>
#     </input>
# 
#     <output>
#         <write-license value="true"/>
#         <dlr-navteq-output value="elmar_output"/>
#     </output>
# 
#     <projection>
#         <proj.utm value="true"/>
#     </projection>
# 
#     <junctions>
#         <no-internal-links value="true"/>
#     </junctions>
# 
#     <report>
#         <xml-validation value="never"/>
#     </report>
# 
# </netconvertConfiguration>
# 
#
#Traffic signal related to LINK_ID and NODE_ID with location relative to driving direction.
#column format like pointcollection.
#DESCRIPTION->LOCATION: 1-rechts von LINK; 2-links von LINK; 3-oberhalb LINK -1-keineAngabe
#RELATREC_ID	POICOL_TYPE	DESCRIPTION	LONGITUDE	LATITUDE	LINK_ID
