# Format matches Extraction version: V6.5 
# <?xml version="1.0" encoding="UTF-8"?>
# 
# <!-- generated on 2022-05-13 16:37:10 by Eclipse SUMO netconvert Version v1_13_0+0243-3930482e178
# This data file and the accompanying materials
# are made available under the terms of the Eclipse Public License v2.0
# which accompanies this distribution, and is available at
# http://www.eclipse.org/legal/epl-v20.html
# This file may also be made available under the following Secondary
# Licenses when the conditions for such availability set forth in the Eclipse
# Public License 2.0 are satisfied: GNU General Public License, version 2
# or later which is available at
# https://www.gnu.org/licenses/old-licenses/gpl-2.0-standalone.html
# SPDX-License-Identifier: EPL-2.0 OR GPL-2.0-or-later
# -->
# 
# <configuration xmlns:xsi="http://www.w3.org/2001/XMLSchema-instance" xsi:noNamespaceSchemaLocation="http://sumo.dlr.de/xsd/netconvertConfiguration.xsd">
# 
#     <input>
#         <dlr-navteq-prefix value="elmar"/>
#     </input>
# 
#     <output>
#         <write-license value="true"/>
#         <dlr-navteq-output value="elmar_output"/>
#     </output>
# 
#     <projection>
#         <proj.utm value="true"/>
#     </projection>
# 
#     <junctions>
#         <no-internal-links value="true"/>
#     </junctions>
# 
#     <report>
#         <xml-validation value="never"/>
#     </report>
# 
# </configuration>
# 
#
#No driving allowed from ID1 to ID2 or the complete chain from ID1 to IDn
#RELATREC_ID	PERMANENT_ID_INFO	VALIDITY_PERIOD	THROUGH_TRAFFIC	VEHICLE_TYPE	NAVTEQ_LINK_ID1	[NAVTEQ_LINK_ID2 ...]
