# Format matches Extraction version: V6.5 
# <?xml version="1.0" encoding="UTF-8"?>
# 
# <!-- generated on 01/22/18 12:28:25 by SUMO netconvert Version v0_31_0+1647-6d8dc768ae
# This data file and the accompanying materials
# are made available under the terms of the Eclipse Public License v2.0
# which accompanies this distribution, and is available at
# http://www.eclipse.org/legal/epl-v20.html
# SPDX-License-Identifier: EPL-2.0
# -->
# 
# <configuration xmlns:xsi="http://www.w3.org/2001/XMLSchema-instance" xsi:noNamespaceSchemaLocation="http://sumo.dlr.de/xsd/netconvertConfiguration.xsd">
# 
#     <input>
#         <dlr-navteq-prefix value="elmar"/>
#     </input>
# 
#     <output>
#         <write-license value="true"/>
#         <dlr-navteq-output value="elmar_output"/>
#     </output>
# 
#     <projection>
#         <proj.scale value="1e-005"/>
#         <proj.utm value="true"/>
#     </projection>
# 
#     <processing>
#         <osm.all-attributes value="true"/>
#         <no-internal-links value="true"/>
#         <numerical-ids value="true"/>
#     </processing>
# 
#     <report>
#         <xml-validation value="never"/>
#     </report>
# 
# </configuration>
# 
#
#Traffic signal related to LINK_ID and NODE_ID with location relative to driving direction.
#column format like pointcollection.
#DESCRIPTION->LOCATION: 1-rechts von LINK; 2-links von LINK; 3-oberhalb LINK -1-keineAngabe
#RELATREC_ID	POICOL_TYPE	DESCRIPTION	LONGITUDE	LATITUDE	LINK_ID
