<?xml version="1.0" encoding="UTF-8"?>

<!-- generated on 2022-10-28 12:40:50.889367 by routeSampler.py v1_14_1+2061-c506e5f
<configuration>
    <min-count value="2"/>
    <route-files value="input_routes.rou.xml"/>
    <turn-files value="input_turns.xml"/>
    <verbose value="True"/>
</configuration>
-->

<routes xmlns:xsi="http://www.w3.org/2001/XMLSchema-instance" xsi:noNamespaceSchemaLocation="http://sumo.dlr.de/xsd/routes_file.xsd">
