<routes>
    <vehicle id="0" depart="0"><route edges="1 2 3 4 5 6 7o"/></vehicle>
</routes>