<?xml version="1.0" encoding="UTF-8"?>

<!-- generated on 2026-05-10T16:26:54.549743+01:00 by Eclipse SUMO netedit v1_26_0+1557-f965e8ef0a0
<neteditConfiguration xmlns:xsi="http://www.w3.org/2001/XMLSchema-instance" xsi:noNamespaceSchemaLocation="http://sumo.dlr.de/xsd/neteditConfiguration.xsd">

    <input>
        <sumo-net-file value="net.net.xml"/>
    </input>

    <output>
        <output-file value="net.net.xml"/>
    </output>

    <processing>
        <geometry.min-radius.fix.railways value="false"/>
        <geometry.avoid-overlap value="false"/>
        <geometry.max-grade.fix value="false"/>
        <offset.disable-normalization value="true"/>
    </processing>

    <junctions>
        <no-turnarounds value="true"/>
        <junctions.corner-detail value="0"/>
        <junctions.limit-turn-speed value="-1.00"/>
    </junctions>

</neteditConfiguration>
-->

<net version="1.20" avoidOverlap="0" xmlns:xsi="http://www.w3.org/2001/XMLSchema-instance" xsi:noNamespaceSchemaLocation="http://sumo.dlr.de/xsd/net_file.xsd">

    <location netOffset="0.00,0.00" convBoundary="300.00,-50.00,450.00,50.00" origBoundary="-10000000000.00,-10000000000.00,10000000000.00,10000000000.00" projParameter="!"/>

    <edge id=":gneJ1_0" function="internal">
        <lane id=":gneJ1_0_0" index="0" speed="13.89" length="11.67" shape="392.53,-5.53 395.48,-4.17 397.89,-3.11 400.12,-1.80 402.55,0.28"/>
    </edge>
    <edge id=":gneJ1_1" function="internal">
        <lane id=":gneJ1_1_0" index="0" speed="13.89" length="11.27" shape="391.60,-1.60 395.68,-1.48 398.87,-1.13 401.16,-0.54 402.55,0.28"/>
    </edge>

    <edge id="beg" from="gneJ0" to="gneJ1" priority="1">
        <lane id="beg_0" index="0" speed="13.89" length="91.60" shape="300.00,-1.60 391.60,-1.60"/>
    </edge>
    <edge id="beg2" from="J0" to="gneJ1" priority="-1">
        <lane id="beg2_0" index="0" speed="13.89" length="102.65" shape="300.72,-51.43 392.53,-5.53"/>
    </edge>
    <edge id="end" from="gneJ1" to="gneJ3" priority="1">
        <lane id="end_0" index="0" speed="13.89" length="68.71" shape="402.55,0.28 451.13,48.87"/>
    </edge>

    <junction id="J0" type="dead_end" x="300.00" y="-50.00" incLanes="" intLanes="" shape="300.00,-50.00 301.43,-52.86"/>
    <junction id="gneJ0" type="dead_end" x="300.00" y="0.00" incLanes="" intLanes="" shape="300.00,0.00 300.00,-3.20"/>
    <junction id="gneJ1" type="priority" x="400.00" y="0.00" incLanes="beg2_0 beg_0" intLanes=":gneJ1_0_0 :gneJ1_1_0" shape="401.41,1.41 403.68,-0.85 393.24,-6.96 391.81,-4.09 391.60,-3.20 391.60,0.00" radius="2.00">
        <request index="0" response="10" foes="10" cont="0"/>
        <request index="1" response="00" foes="01" cont="0"/>
    </junction>
    <junction id="gneJ3" type="dead_end" x="450.00" y="50.00" incLanes="end_0" intLanes="" shape="452.26,47.74 450.00,50.00"/>

    <connection from="beg" to="end" fromLane="0" toLane="0" via=":gneJ1_1_0" dir="l" state="M"/>
    <connection from="beg2" to="end" fromLane="0" toLane="0" via=":gneJ1_0_0" dir="s" state="m"/>

    <connection from=":gneJ1_0" to="end" fromLane="0" toLane="0" dir="s" state="M"/>
    <connection from=":gneJ1_1" to="end" fromLane="0" toLane="0" dir="l" state="M"/>

</net>
