<?xml version="1.0" encoding="UTF-8"?>

<!-- generated on 2023-02-07 14:37:05 by Eclipse SUMO netedit Version v1_16_0+0024-1134bf4b789
-->

<additional xmlns:xsi="http://www.w3.org/2001/XMLSchema-instance" xsi:noNamespaceSchemaLocation="http://sumo.dlr.de/xsd/additional_file.xsd">
    <!-- StoppingPlaces -->
    <parkingArea id="parkingArea_1" name="parkingArea" lane="center1_0" startPos="-20.00" endPos="-10.00" friendlyPos="true" width="12.00" length="5.00"/>
    <parkingArea id="parkingArea_2" name="parkingArea" lane="center1_0" startPos="200.00" endPos="300.00" friendlyPos="true" width="12.00" length="5.00"/>
    <parkingArea id="parkingArea_3" name="parkingArea" lane="center1_0" startPos="50.00" endPos="20.00" friendlyPos="true" width="12.00" length="5.00"/>
    <parkingArea id="parkingArea_4" name="parkingArea" lane="center1_0" startPos="20.00" endPos="20.00" friendlyPos="true" width="12.00" length="5.00"/>
</additional>
