<nodes>
   <node id="0" x="0.0" y="0.0"/>
   <node id="1" x="100.0" y="0.0"/>
</nodes>
