<types xmlns:xsi="http://www.w3.org/2001/XMLSchema-instance" xsi:noNamespaceSchemaLocation="http://sumo.dlr.de/xsd/types_file.xsd">

    <!-- no extra permissions shall be added -->
    <type id="usage.main"       disallow="all"/>
    <type id="usage.branch"     disallow="all"/>
    <type id="usage.industrial" disallow="all"/>
    <type id="usage.military"   disallow="all"/>
    <type id="usage.tourism"    disallow="all"/>
    <type id="usage.test"       disallow="all"/>

</types>
