<?xml version="1.0" encoding="UTF-8"?>

<!-- generated on 2023-11-06 09:00:35 by Eclipse SUMO netedit Version v1_18_0+2429-1a41f4aa074
-->

<additional xmlns:xsi="http://www.w3.org/2001/XMLSchema-instance" xsi:noNamespaceSchemaLocation="http://sumo.dlr.de/xsd/additional_file.xsd">
    <!-- StoppingPlaces -->
    <busStop id="busStop1" lane="gneE0_0" startPos="37.00" endPos="43.60" friendlyPos="true"/>
    <busStop id="busStop2" lane="gneE1_0" startPos="3.00" endPos="13.00" friendlyPos="true"/>
    <busStop id="busStop3" lane="gneE2.19_0" startPos="23.70" endPos="23.80" friendlyPos="true"/>
</additional>
