<?xml version="1.0" encoding="UTF-8"?>

<!-- generated on Wed Sep 28 13:48:19 2016 by SUMO netconvert Version dev-SVN-r21560
<?xml version="1.0" encoding="UTF-8"?>

<configuration xmlns:xsi="http://www.w3.org/2001/XMLSchema-instance" xsi:noNamespaceSchemaLocation="http://sumo.dlr.de/xsd/netconvertConfiguration.xsd">

    <input>
        <node-files value="input_plain.nod.xml"/>
        <edge-files value="input_plain.edg.xml"/>
    </input>

    <output>
        <output-file value="net.net.xml"/>
    </output>

    <report>
        <xml-validation value="never"/>
    </report>

</configuration>
-->

<net version="0.27" xmlns:xsi="http://www.w3.org/2001/XMLSchema-instance" xsi:noNamespaceSchemaLocation="http://sumo.dlr.de/xsd/net_file.xsd">

    <location netOffset="0.00,0.00" convBoundary="0.00,0.00,200.00,100.00" origBoundary="-10000000000.00,-10000000000.00,10000000000.00,10000000000.00" projParameter="!"/>

    <edge id=":gneJ0_0" function="internal">
        <lane id=":gneJ0_0_0" index="0" speed="13.89" length="4.82" shape="0.00,1.65 -1.24,0.83 -1.65,0.00 -1.24,-0.83 0.00,-1.65"/>
    </edge>
    <edge id=":gneJ1_0" function="internal">
        <lane id=":gneJ1_0_0" index="0" speed="13.89" length="5.00" shape="98.35,4.75,10.00 98.16,3.39,10.00 97.57,2.43,10.00 96.61,1.84,10.00 95.25,1.65,10.00"/>
    </edge>
    <edge id=":gneJ1_1" function="internal">
        <lane id=":gneJ1_1_0" index="0" speed="13.89" length="10.32" shape="98.35,4.75,10.00 98.75,1.95,10.00 99.95,-0.05,10.00 101.95,-1.25,10.00 104.75,-1.65,10.00"/>
    </edge>
    <edge id=":gneJ1_2" function="internal">
        <lane id=":gneJ1_2_0" index="0" speed="13.89" length="4.82" shape="98.35,4.75,10.00 99.18,3.51,10.00 100.00,3.10,10.00 100.83,3.51,10.00 101.65,4.75,10.00"/>
    </edge>
    <edge id=":gneJ1_3" function="internal">
        <lane id=":gneJ1_3_0" index="0" speed="13.89" length="5.00" shape="104.75,1.65,10.00 103.39,1.84,10.00 102.43,2.43,10.00 101.84,3.39,10.00 101.65,4.75,10.00"/>
    </edge>
    <edge id=":gneJ1_4" function="internal">
        <lane id=":gneJ1_4_0" index="0" speed="13.89" length="9.50" shape="104.75,1.65,10.00 95.25,1.65,10.00"/>
    </edge>
    <edge id=":gneJ1_5" function="internal">
        <lane id=":gneJ1_5_0" index="0" speed="13.89" length="2.41" shape="104.75,1.65,10.00 103.51,0.83,10.00 103.10,0.00,10.00"/>
    </edge>
    <edge id=":gneJ1_9" function="internal">
        <lane id=":gneJ1_9_0" index="0" speed="13.89" length="2.41" shape="103.10,0.00,10.00 103.51,-0.83,10.00 104.75,-1.65,10.00"/>
    </edge>
    <edge id=":gneJ1_6" function="internal">
        <lane id=":gneJ1_6_0" index="0" speed="13.89" length="9.50" shape="95.25,-1.65,10.00 104.75,-1.65,10.00"/>
    </edge>
    <edge id=":gneJ1_7" function="internal">
        <lane id=":gneJ1_7_0" index="0" speed="13.89" length="5.28" shape="95.25,-1.65,10.00 98.05,-1.25,10.00 100.05,-0.05,10.00 100.11,0.05,10.00"/>
    </edge>
    <edge id=":gneJ1_8" function="internal">
        <lane id=":gneJ1_8_0" index="0" speed="13.89" length="2.41" shape="95.25,-1.65,10.00 96.49,-0.83,10.00 96.90,0.00,10.00"/>
    </edge>
    <edge id=":gneJ1_10" function="internal">
        <lane id=":gneJ1_10_0" index="0" speed="13.89" length="5.04" shape="100.11,0.05,10.00 101.25,1.95,10.00 101.65,4.75,10.00"/>
    </edge>
    <edge id=":gneJ1_11" function="internal">
        <lane id=":gneJ1_11_0" index="0" speed="13.89" length="2.41" shape="96.90,0.00,10.00 96.49,0.83,10.00 95.25,1.65,10.00"/>
    </edge>
    <edge id=":gneJ3_0" function="internal">
        <lane id=":gneJ3_0_0" index="0" speed="13.89" length="4.82" shape="200.00,-1.65 201.24,-0.83 201.65,0.00 201.24,0.83 200.00,1.65"/>
    </edge>
    <edge id=":gneJ4_0" function="internal">
        <lane id=":gneJ4_0_0" index="0" speed="13.89" length="4.82" shape="101.65,100.00 100.82,101.24 100.00,101.65 99.17,101.24 98.35,100.00"/>
    </edge>

    <edge id="gneE0" from="gneJ0" to="gneJ1" priority="1">
        <lane id="gneE0_0" index="0" speed="13.89" length="95.77" shape="0.00,-1.65 95.25,-1.65,10.00"/>
    </edge>
    <edge id="gneE1" from="gneJ1" to="gneJ3" priority="1">
        <lane id="gneE1_0" index="0" speed="13.89" length="95.77" shape="104.75,-1.65,10.00 200.00,-1.65"/>
    </edge>
    <edge id="gneE2" from="gneJ1" to="gneJ4" priority="1">
        <lane id="gneE2_0" index="0" speed="13.89" length="95.77" shape="101.65,4.75,10.00 101.65,100.00"/>
    </edge>
    <edge id="gneE5" from="gneJ4" to="gneJ1" priority="1">
        <lane id="gneE5_0" index="0" speed="13.89" length="95.77" shape="98.35,100.00 98.35,4.75,10.00"/>
    </edge>
    <edge id="gneE6" from="gneJ3" to="gneJ1" priority="1">
        <lane id="gneE6_0" index="0" speed="13.89" length="95.77" shape="200.00,1.65 104.75,1.65,10.00"/>
    </edge>
    <edge id="gneE7" from="gneJ1" to="gneJ0" priority="1">
        <lane id="gneE7_0" index="0" speed="13.89" length="95.77" shape="95.25,1.65,10.00 0.00,1.65"/>
    </edge>

    <junction id="gneJ0" type="unregulated" x="0.00" y="0.00" incLanes="gneE7_0" intLanes=":gneJ0_0_0" shape="0.00,-0.05 0.00,3.25 0.00,0.05"/>
    <junction id="gneJ1" type="priority" x="100.00" y="0.00" z="10.00" incLanes="gneE5_0 gneE6_0 gneE0_0" intLanes=":gneJ1_0_0 :gneJ1_1_0 :gneJ1_2_0 :gneJ1_3_0 :gneJ1_4_0 :gneJ1_9_0 :gneJ1_6_0 :gneJ1_10_0 :gneJ1_11_0" shape="96.75,4.75,10.00 103.25,4.75,10.00 104.75,3.25,10.00 104.75,-3.25,10.00 95.25,-3.25,10.00 95.25,3.25,10.00">
        <request index="0" response="000010000" foes="100010000" cont="0"/>
        <request index="1" response="011010000" foes="011110000" cont="0"/>
        <request index="2" response="010001000" foes="010001000" cont="0"/>
        <request index="3" response="000000000" foes="010000100" cont="0"/>
        <request index="4" response="000000000" foes="110000011" cont="0"/>
        <request index="5" response="001000010" foes="001000010" cont="1"/>
        <request index="6" response="000000000" foes="000100010" cont="0"/>
        <request index="7" response="000011000" foes="000011110" cont="1"/>
        <request index="8" response="000010001" foes="000010001" cont="1"/>
    </junction>
    <junction id="gneJ3" type="unregulated" x="200.00" y="0.00" incLanes="gneE1_0" intLanes=":gneJ3_0_0" shape="200.00,0.05 200.00,-3.25 200.00,-0.05"/>
    <junction id="gneJ4" type="unregulated" x="100.00" y="100.00" incLanes="gneE2_0" intLanes=":gneJ4_0_0" shape="99.95,100.00 103.25,100.00 100.05,100.00"/>

    <junction id=":gneJ1_9_0" type="internal" x="103.10" y="0.00" z="10.00" incLanes=":gneJ1_5_0 gneE0_0 gneE5_0" intLanes=":gneJ1_1_0 :gneJ1_6_0"/>
    <junction id=":gneJ1_10_0" type="internal" x="100.11" y="0.05" z="10.00" incLanes=":gneJ1_7_0 gneE6_0" intLanes=":gneJ1_1_0 :gneJ1_2_0 :gneJ1_3_0 :gneJ1_4_0"/>
    <junction id=":gneJ1_11_0" type="internal" x="96.90" y="0.00" z="10.00" incLanes=":gneJ1_8_0 gneE5_0 gneE6_0" intLanes=":gneJ1_0_0 :gneJ1_4_0"/>

    <connection from="gneE0" to="gneE1" fromLane="0" toLane="0" via=":gneJ1_6_0" dir="s" state="M"/>
    <connection from="gneE0" to="gneE2" fromLane="0" toLane="0" via=":gneJ1_7_0" dir="l" state="m"/>
    <connection from="gneE0" to="gneE7" fromLane="0" toLane="0" via=":gneJ1_8_0" dir="t" state="m"/>
    <connection from="gneE1" to="gneE6" fromLane="0" toLane="0" via=":gneJ3_0_0" dir="t" state="M"/>
    <connection from="gneE2" to="gneE5" fromLane="0" toLane="0" via=":gneJ4_0_0" dir="t" state="M"/>
    <connection from="gneE5" to="gneE7" fromLane="0" toLane="0" via=":gneJ1_0_0" dir="r" state="m"/>
    <connection from="gneE5" to="gneE1" fromLane="0" toLane="0" via=":gneJ1_1_0" dir="l" state="m"/>
    <connection from="gneE5" to="gneE2" fromLane="0" toLane="0" via=":gneJ1_2_0" dir="t" state="m"/>
    <connection from="gneE6" to="gneE2" fromLane="0" toLane="0" via=":gneJ1_3_0" dir="r" state="M"/>
    <connection from="gneE6" to="gneE7" fromLane="0" toLane="0" via=":gneJ1_4_0" dir="s" state="M"/>
    <connection from="gneE6" to="gneE1" fromLane="0" toLane="0" via=":gneJ1_5_0" dir="t" state="m"/>
    <connection from="gneE7" to="gneE0" fromLane="0" toLane="0" via=":gneJ0_0_0" dir="t" state="M"/>

    <connection from=":gneJ0_0" to="gneE0" fromLane="0" toLane="0" dir="s" state="M"/>
    <connection from=":gneJ1_0" to="gneE7" fromLane="0" toLane="0" dir="s" state="M"/>
    <connection from=":gneJ1_1" to="gneE1" fromLane="0" toLane="0" dir="s" state="M"/>
    <connection from=":gneJ1_2" to="gneE2" fromLane="0" toLane="0" dir="s" state="M"/>
    <connection from=":gneJ1_3" to="gneE2" fromLane="0" toLane="0" dir="s" state="M"/>
    <connection from=":gneJ1_4" to="gneE7" fromLane="0" toLane="0" dir="s" state="M"/>
    <connection from=":gneJ1_5" to="gneE1" fromLane="0" toLane="0" via=":gneJ1_9_0" dir="s" state="m"/>
    <connection from=":gneJ1_9" to="gneE1" fromLane="0" toLane="0" dir="s" state="M"/>
    <connection from=":gneJ1_6" to="gneE1" fromLane="0" toLane="0" dir="s" state="M"/>
    <connection from=":gneJ1_7" to="gneE2" fromLane="0" toLane="0" via=":gneJ1_10_0" dir="s" state="m"/>
    <connection from=":gneJ1_10" to="gneE2" fromLane="0" toLane="0" dir="s" state="M"/>
    <connection from=":gneJ1_8" to="gneE7" fromLane="0" toLane="0" via=":gneJ1_11_0" dir="s" state="m"/>
    <connection from=":gneJ1_11" to="gneE7" fromLane="0" toLane="0" dir="s" state="M"/>
    <connection from=":gneJ3_0" to="gneE6" fromLane="0" toLane="0" dir="s" state="M"/>
    <connection from=":gneJ4_0" to="gneE5" fromLane="0" toLane="0" dir="s" state="M"/>

</net>
