<?xml version="1.0" encoding="UTF-8"?>

<!-- generated on 14.11.2017 15:10:21 by Netedit Version v0_31_0-940-g2875adb48a
This data file and the accompanying materials
are made available under the terms of the Eclipse Public License v2.0
which accompanies this distribution, and is available at
http://www.eclipse.org/legal/epl-v20.html
SPDX-License-Identifier: EPL-2.0
<configuration xmlns:xsi="http://www.w3.org/2001/XMLSchema-instance" xsi:noNamespaceSchemaLocation="http://sumo.dlr.de/xsd/netconvertConfiguration.xsd">

    <input>
        <sumo-net-file value="net.net.xml"/>
    </input>

    <output>
        <output-file value="net.net.xml"/>
    </output>

    <processing>
        <no-internal-links value="false"/>
        <no-turnarounds value="true"/>
        <offset.disable-normalization value="true"/>
        <lefthand value="false"/>
        <junctions.corner-detail value="0"/>
        <rectangular-lane-cut value="false"/>
        <walkingareas value="true"/>
    </processing>

</configuration>
-->

<net version="0.27" walkingareas="true" xmlns:xsi="http://www.w3.org/2001/XMLSchema-instance" xsi:noNamespaceSchemaLocation="http://sumo.dlr.de/xsd/net_file.xsd">

    <location netOffset="500.00,0.00" convBoundary="0.00,0.00,2500.00,500.00" origBoundary="-500.00,0.00,2000.00,500.00" projParameter="!"/>

    <edge id=":absBeg_w0" function="walkingarea">
        <lane id=":absBeg_w0_0" index="0" allow="pedestrian" speed="1.00" length="0.10" width="3.20" shape="0.00,-0.05 0.00,-3.25 0.00,-3.35 0.00,-6.55"/>
    </edge>
    <edge id=":absEnd_0" function="internal">
        <lane id=":absEnd_0_0" index="0" speed="27.80" length="0.10" shape="2000.00,-4.95 2000.00,-4.95"/>
        <lane id=":absEnd_0_1" index="1" speed="27.80" length="0.10" shape="2000.00,-1.65 2000.00,-1.65"/>
    </edge>
    <edge id=":absEnd_w0" function="walkingarea">
        <lane id=":absEnd_w0_0" index="0" allow="pedestrian" speed="1.00" length="0.10" width="3.20" shape="2000.00,-0.05 2000.00,-3.25 2000.00,-3.35 2000.00,-6.55 2000.00,-6.55 2000.00,-3.35 2000.00,-3.25 2000.00,-0.05"/>
    </edge>
    <edge id=":beg_0" function="internal">
        <lane id=":beg_0_0" index="0" allow="pedestrian" speed="20.85" length="7.65" width="2.00" shape="498.55,-4.95 500.55,-4.34 501.65,-3.00 502.75,-1.66 504.75,-1.05"/>
    </edge>
    <edge id=":beg_1" function="internal">
        <lane id=":beg_1_0" index="0" allow="pedestrian" speed="27.80" length="5.00" shape="498.55,-1.65 499.91,-1.46 500.88,-0.87 501.46,0.09 501.65,1.45"/>
    </edge>
    <edge id=":beg_w0" function="walkingarea">
        <lane id=":beg_w0_0" index="0" allow="pedestrian" speed="1.00" length="6.14" width="3.20" shape="500.05,1.45 503.25,1.45 504.75,-0.05 504.75,-2.05 498.55,-6.55 498.55,-3.35 498.55,-3.25 498.55,-0.05"/>
    </edge>
    <edge id=":begleft_0" function="internal">
        <lane id=":begleft_0_0" index="0" allow="pedestrian" speed="27.80" length="2.58" shape="501.65,496.75 501.75,497.45 502.05,497.95 502.55,498.25 503.25,498.35"/>
    </edge>
    <edge id=":end_0" function="internal">
        <lane id=":end_0_0" index="0" allow="pedestrian" speed="20.85" length="10.50" shape="1491.95,-1.05 1494.82,-1.66 1496.65,-3.00 1498.50,-4.34 1501.45,-4.95"/>
    </edge>
    <edge id=":end_w0" function="walkingarea">
        <lane id=":end_w0_0" index="0" allow="pedestrian" speed="1.00" length="7.77" width="3.20" shape="1493.45,1.45 1496.65,1.45 1496.75,1.45 1499.95,1.45 1501.45,-0.05 1501.45,-3.25 1501.45,-3.35 1501.45,-6.55 1491.95,-2.05 1491.95,-0.05"/>
    </edge>
    <edge id=":endleft_0" function="internal">
        <lane id=":endleft_0_0" index="0" allow="pedestrian" speed="27.80" length="5.00" shape="1491.95,498.35 1493.31,498.16 1494.28,497.58 1494.86,496.61 1495.05,495.25"/>
    </edge>
    <edge id=":endleft_w0" function="walkingarea">
        <lane id=":endleft_w0_0" index="0" allow="pedestrian" speed="1.00" length="4.38" width="3.20" shape="1499.95,495.25 1496.75,495.25 1496.65,495.25 1493.45,495.25 1491.95,496.75 1491.95,499.95"/>
    </edge>
    <edge id=":rabsEnd_w0" function="walkingarea">
        <lane id=":rabsEnd_w0_0" index="0" allow="pedestrian" speed="1.00" length="0.10" width="3.20" shape="2500.00,-6.55 2500.00,-3.35 2500.00,-3.25 2500.00,-0.05"/>
    </edge>

    <edge id="beg" from="absBeg" to="beg" priority="-1">
        <lane id="beg_0" index="0" speed="27.80" length="498.55" shape="0.00,-4.95 498.55,-4.95"/>
        <lane id="beg_1" index="1" speed="27.80" length="498.55" shape="0.00,-1.65 498.55,-1.65"/>
    </edge>
    <edge id="beg2left" from="beg" to="begleft" priority="-1">
        <lane id="beg2left_0" index="0" allow="pedestrian" speed="27.80" length="495.30" shape="501.65,1.45 501.65,496.75"/>
    </edge>
    <edge id="end" from="end" to="absEnd" priority="-1">
        <lane id="end_0" index="0" allow="pedestrian" speed="27.80" length="498.55" shape="1501.45,-4.95 2000.00,-4.95"/>
        <lane id="end_1" index="1" allow="pedestrian" speed="27.80" length="498.55" shape="1501.45,-1.65 2000.00,-1.65"/>
    </edge>
    <edge id="gneE0" from="gneJ0" to="gneJ1" priority="1">
        <lane id="gneE0_0" index="0" allow="rail_urban" speed="13.89" length="1529.03" shape="253.79,275.38 1782.80,268.44"/>
    </edge>
    <edge id="left" from="begleft" to="endleft" priority="-1">
        <lane id="left_0" index="0" allow="pedestrian" speed="27.80" length="988.70" shape="503.25,498.35 1491.95,498.35"/>
    </edge>
    <edge id="left2end" from="endleft" to="end" priority="-1">
        <lane id="left2end_0" index="0" allow="pedestrian" speed="27.80" length="493.80" shape="1495.05,495.25 1495.05,1.45"/>
        <lane id="left2end_1" index="1" allow="pedestrian" speed="27.80" length="493.80" shape="1498.35,495.25 1498.35,1.45"/>
    </edge>
    <edge id="middle" from="beg" to="end" priority="-1">
        <lane id="middle_0" index="0" allow="pedestrian" speed="13.90" length="987.20" width="2.00" shape="504.75,-1.05 1491.95,-1.05"/>
    </edge>
    <edge id="rend" from="absEnd" to="rabsEnd" priority="-1">
        <lane id="rend_0" index="0" speed="27.80" length="500.00" shape="2000.00,-4.95 2500.00,-4.95"/>
        <lane id="rend_1" index="1" speed="27.80" length="500.00" shape="2000.00,-1.65 2500.00,-1.65"/>
    </edge>

    <junction id="absBeg" type="dead_end" x="0.00" y="0.00" incLanes="" intLanes="" shape="0.00,-0.05 0.00,-6.55"/>
    <junction id="absEnd" type="priority" x="2000.00" y="0.00" incLanes="end_0 end_1" intLanes=":absEnd_0_0 :absEnd_0_1" shape="2000.00,-0.05 2000.00,-6.55 2000.00,-0.05">
        <request index="0" response="00" foes="00" cont="0"/>
        <request index="1" response="00" foes="00" cont="0"/>
    </junction>
    <junction id="beg" type="priority" x="500.00" y="0.00" incLanes="beg_0 beg_1" intLanes=":beg_0_0 :beg_1_0" shape="500.05,1.45 503.25,1.45 504.75,-0.05 504.75,-2.05 498.55,-6.55 498.55,-0.05">
        <request index="0" response="00" foes="00" cont="0"/>
        <request index="1" response="00" foes="00" cont="0"/>
    </junction>
    <junction id="begleft" type="priority" x="500.00" y="500.00" incLanes="beg2left_0" intLanes=":begleft_0_0" shape="503.25,499.95 503.25,496.75 500.05,496.75">
        <request index="0" response="0" foes="0" cont="0"/>
    </junction>
    <junction id="end" type="priority" x="1500.00" y="0.00" incLanes="left2end_0 left2end_1 middle_0" intLanes=":end_0_0" shape="1493.45,1.45 1499.95,1.45 1501.45,-0.05 1501.45,-6.55 1491.95,-2.05 1491.95,-0.05">
        <request index="0" response="0" foes="0" cont="0"/>
    </junction>
    <junction id="endleft" type="priority" x="1500.00" y="500.00" incLanes="left_0" intLanes=":endleft_0_0" shape="1499.95,495.25 1493.45,495.25 1491.95,496.75 1491.95,499.95">
        <request index="0" response="0" foes="0" cont="0"/>
    </junction>
    <junction id="gneJ0" type="dead_end" x="253.80" y="277.03" incLanes="" intLanes="" shape="253.80,276.98 253.79,273.78"/>
    <junction id="gneJ1" type="dead_end" x="1782.81" y="270.09" incLanes="gneE0_0" intLanes="" shape="1782.80,266.84 1782.81,270.04"/>
    <junction id="rabsEnd" type="dead_end" x="2500.00" y="0.00" incLanes="rend_0 rend_1" intLanes="" shape="2500.00,-6.55 2500.00,-0.05"/>

    <connection from="beg" to="middle" fromLane="0" toLane="0" pass="1" via=":beg_0_0" dir="s" state="M"/>
    <connection from="beg" to="beg2left" fromLane="1" toLane="0" pass="1" via=":beg_1_0" dir="l" state="M"/>
    <connection from="beg2left" to="left" fromLane="0" toLane="0" via=":begleft_0_0" dir="r" state="M"/>
    <connection from="end" to="rend" fromLane="0" toLane="0" via=":absEnd_0_0" dir="s" state="M"/>
    <connection from="end" to="rend" fromLane="1" toLane="1" via=":absEnd_0_1" dir="s" state="M"/>
    <connection from="left" to="left2end" fromLane="0" toLane="0" via=":endleft_0_0" dir="r" state="M"/>
    <connection from="middle" to="end" fromLane="0" toLane="0" pass="1" via=":end_0_0" dir="s" state="M"/>

    <connection from=":absEnd_0" to="rend" fromLane="0" toLane="0" dir="s" state="M"/>
    <connection from=":absEnd_0" to="rend" fromLane="1" toLane="1" dir="s" state="M"/>
    <connection from=":beg_0" to="middle" fromLane="0" toLane="0" dir="s" state="M"/>
    <connection from=":beg_1" to="beg2left" fromLane="0" toLane="0" dir="l" state="M"/>
    <connection from=":begleft_0" to="left" fromLane="0" toLane="0" dir="r" state="M"/>
    <connection from=":end_0" to="end" fromLane="0" toLane="0" dir="s" state="M"/>
    <connection from=":endleft_0" to="left2end" fromLane="0" toLane="0" dir="r" state="M"/>

    <connection from=":absBeg_w0" to="beg" fromLane="0" toLane="0" dir="s" state="M"/>
    <connection from=":absEnd_w0" to="rend" fromLane="0" toLane="0" dir="s" state="M"/>
    <connection from="end" to=":absEnd_w0" fromLane="0" toLane="0" dir="s" state="M"/>
    <connection from=":beg_w0" to="beg2left" fromLane="0" toLane="0" dir="s" state="M"/>
    <connection from=":beg_w0" to="middle" fromLane="0" toLane="0" dir="s" state="M"/>
    <connection from="beg" to=":beg_w0" fromLane="0" toLane="0" dir="s" state="M"/>
    <connection from=":end_w0" to="end" fromLane="0" toLane="0" dir="s" state="M"/>
    <connection from="left2end" to=":end_w0" fromLane="0" toLane="0" dir="s" state="M"/>
    <connection from="middle" to=":end_w0" fromLane="0" toLane="0" dir="s" state="M"/>
    <connection from=":endleft_w0" to="left2end" fromLane="0" toLane="0" dir="s" state="M"/>
    <connection from="left" to=":endleft_w0" fromLane="0" toLane="0" dir="s" state="M"/>
    <connection from="rend" to=":rabsEnd_w0" fromLane="0" toLane="0" dir="s" state="M"/>
</net>
