<?xml version="1.0" encoding="UTF-8"?>

<!-- generated on 2021-10-07 11:25:51 by Eclipse SUMO netedit Version v1_10_0+1327-333c0ba
<configuration xmlns:xsi="http://www.w3.org/2001/XMLSchema-instance" xsi:noNamespaceSchemaLocation="http://sumo.dlr.de/xsd/netconvertConfiguration.xsd">

    <input>
        <sumo-net-file value="net.netconvert"/>
    </input>

    <output>
        <output-file value="net.netconvert"/>
        <plain-output-prefix value="/home/erdm_ja/scr1/sumo/tests/netconvert/function/opposites/guess_noOpposite_large_gap/input_plain"/>
    </output>

    <processing>
        <geometry.min-radius.fix.railways value="false"/>
        <geometry.max-grade.fix value="false"/>
        <offset.disable-normalization value="true"/>
        <lefthand value="false"/>
    </processing>

    <junctions>
        <no-turnarounds value="true"/>
        <junctions.corner-detail value="5"/>
        <junctions.limit-turn-speed value="5.5"/>
        <rectangular-lane-cut value="false"/>
    </junctions>

    <pedestrian>
        <walkingareas value="false"/>
    </pedestrian>

    <report>
        <aggregate-warnings value="5"/>
    </report>

</configuration>
-->

<edges version="1.9" xmlns:xsi="http://www.w3.org/2001/XMLSchema-instance" xsi:noNamespaceSchemaLocation="http://sumo.dlr.de/xsd/edges_file.xsd">
    <edge id="EW" from="E" to="W" priority="1" numLanes="1" speed="13.89" shape="200.00,3.50 0.00,3.50"/>
    <edge id="WE" from="W" to="E" priority="1" numLanes="1" speed="13.89" shape="0.00,0.50 200.00,0.50"/>
</edges>
