<routes>
	<vType id="bike_bicycle" vClass="bicycle" latAlignment="center"/>
    <vType id="ped_pedestrian" vClass="pedestrian"/>
	
    <person id="ped4843" type="ped_pedestrian" depart="176.71"> <!--depart="29176.80">-->
        <walk edges="-34001206#18 -34001206#17"/>
    </person>
    <person id="ped4877" type="ped_pedestrian" depart="186.20">
        <walk edges="-34001206#17 -34001206#18"/>
    </person>	
	<trip id="bike2869" type="bike_bicycle" depart="186.20" departLane="best" from="-34001206#18" to="-34001206#17" speedFactor="1.03" departPos="10"/>	

	<person id="ped4943" type="ped_pedestrian" depart="247.50">
        <walk edges="-34001206#18 -34001206#17"/>
    </person>
</routes>
