<?xml version="1.0" encoding="UTF-8"?>

<!-- generated on 2021-10-07 08:59:42 by Eclipse SUMO duarouter Version v1_10_0+1322-d8ad03c
This data file and the accompanying materials
are made available under the terms of the Eclipse Public License v2.0
which accompanies this distribution, and is available at
http://www.eclipse.org/legal/epl-v20.html
SPDX-License-Identifier: EPL-2.0
<configuration xmlns:xsi="http://www.w3.org/2001/XMLSchema-instance" xsi:noNamespaceSchemaLocation="http://sumo.dlr.de/xsd/duarouterConfiguration.xsd">

    <input>
        <net-file value="input_net.net.xml"/>
        <route-files value="input_routes.rou.xml"/>
    </input>

    <output>
        <output-file value="routes.rou.xml"/>
        <write-license value="true"/>
        <alternatives-output value="routes.rou.alt.xml"/>
        <exit-times value="true"/>
        <intended-depart value="true"/>
        <route-length value="true"/>
    </output>

    <report>
        <xml-validation value="never"/>
        <xml-validation.routes value="never"/>
        <no-step-log value="true"/>
    </report>

</configuration>
-->

<routes xmlns:xsi="http://www.w3.org/2001/XMLSchema-instance" xsi:noNamespaceSchemaLocation="http://sumo.dlr.de/xsd/routes_file.xsd">
    <vehicle id="p0_0" depart="triggered">
        <route edges="beg middle end" exitTimes="17.99 89.93 107.91"/>
    </vehicle>
    <person id="p0" depart="0.00">
        <ride from="beg" to="end" lines="p0_0"/>
    </person>
    <person id="p1" depart="0.00">
        <walk started="0.00" edges="end middle beg" exitTimes="480.00 1440.00 1920.00" routeLength="2000.00"/>
    </person>
</routes>
