<?xml version="1.0" encoding="UTF-8"?>

<!-- generated on 2022-03-04 10:31:43 by Eclipse SUMO netedit Version v1_12_0+1137-e9106068858
-->

<additional xmlns:xsi="http://www.w3.org/2001/XMLSchema-instance" xsi:noNamespaceSchemaLocation="http://sumo.dlr.de/xsd/additional_file.xsd">
    <!-- Shapes -->
    <poly id="po_0" color="red" fill="0" layer="0.00" shape="10.000000,10.000000 10.000000,20.000000 0.000000,20.000000 0.000000,10.000000 10.000000,10.000000"/>
</additional>
