<?xml version="1.0" encoding="UTF-8"?>

<!-- generated on 2021-11-16 11:48:59 by Eclipse SUMO netedit Version v1_10_0+2310-e230b72ef81
-->

<additional xmlns:xsi="http://www.w3.org/2001/XMLSchema-instance" xsi:noNamespaceSchemaLocation="http://sumo.dlr.de/xsd/additional_file.xsd">
    <routeProbe id="RouteProbeA" begin="0.00" freq="3600.00" edge="gneE0" file="RouteProbeA.xml"/>
    <routeProbe id="RouteProbeB" begin="0.00" freq="3600.00" edge="gneE0" file="RouteProbeB.xml"/>
    <routeProbe id="customRouteProbeName" begin="0.00" freq="3600.00" edge="gneE0" file="RouteProbeB.xml"/>
    <calibrator id="calibratorA" edge="gneE2" pos="20.00" freq="30.00" name="NameA" output="fileA.txt" routeProbe="customRouteProbeName">
        <param key="KeyA1" value="valueA1"/>
        <param key="KeyA2" value="valueA3"/>
        <param key="KeyA3" value="valueA2"/>
    </calibrator>
    <calibrator id="calibratorB" edge="gneE3" pos="30.00" freq="40.00" name="NameB" output="fileB.txt" routeProbe="customRouteProbeName">
        <param key="KeyB1" value="valueB1"/>
        <param key="KeyB2" value="valueB3"/>
        <param key="KeyB3" value="valueB2"/>
    </calibrator>
</additional>
