<?xml version="1.0" encoding="UTF-8"?>

<!-- generated on 2022-06-03 16:10:19 by Eclipse SUMO netedit Version v1_13_0+0610-e5b7f68bfcb
-->

<additional xmlns:xsi="http://www.w3.org/2001/XMLSchema-instance" xsi:noNamespaceSchemaLocation="http://sumo.dlr.de/xsd/additional_file.xsd">
    <!-- Detectors -->
    <entryExitDetector id="e3_0" pos="22.00,6.00" period="300.00" file="e3_0.xml">
        <detExit lane="gneE1_0" pos="29.00"/>
        <detEntry lane="gneE0_0" pos="17.00"/>
    </entryExitDetector>
</additional>
