<additional xmlns:xsi="http://www.w3.org/2001/XMLSchema-instance"
	xsi:noNamespaceSchemaLocation="http://sumo.dlr.de/xsd/additional_file.xsd">
    <containerStop id="beg_0" name="blubber" lane="beg_0"/>
    <containerStop id="left_0" name="blubber--zisch" lane="left_0"/>
    <containerStop id="end_0" lane="end_0"/>
</additional>
