<?xml version="1.0" encoding="UTF-8"?>
<!-- generated on 2020-12-15 07:18:48.880431 by netdiff.py v1_8_0+0245-a8a7ca15b4
  options: source.net.xml dest.net.xml diff
-->
<connections version="1.9" xmlns:xsi="http://www.w3.org/2001/XMLSchema-instance" xsi:noNamespaceSchemaLocation="http://sumo.dlr.de/xsd/connections_file.xsd">
    <!-- Deleted Elements -->
    <!-- Created Elements -->
    <!-- Changed Elements -->
</connections>
