<?xml version="1.0" encoding="UTF-8"?>

<!-- generated on Thu Oct 27 15:43:52 2016 by SUMO netconvert Version dev-SVN-r21818
<?xml version="1.0" encoding="UTF-8"?>

<configuration xmlns:xsi="http://www.w3.org/2001/XMLSchema-instance" xsi:noNamespaceSchemaLocation="http://sumo.dlr.de/xsd/netconvertConfiguration.xsd">

    <input>
        <node-files value="input_plain.nod.xml"/>
        <edge-files value="input_plain.edg.xml"/>
    </input>

    <processing>
        <ignore-errors.edge-type value="true"/>
        <no-internal-links value="true"/>
        <no-turnarounds value="true"/>
    </processing>

    <report>
        <xml-validation value="never"/>
    </report>

</configuration>
-->

<net version="0.27" xmlns:xsi="http://www.w3.org/2001/XMLSchema-instance" xsi:noNamespaceSchemaLocation="http://sumo.dlr.de/xsd/net_file.xsd">

    <location netOffset="-391664.87,-5820241.24" convBoundary="0.00,0.00,254.01,161.48" origBoundary="13.354338,52.488705,13.527397,52.569279" projParameter="+proj=utm +zone=33 +ellps=WGS84 +datum=WGS84 +units=m +no_defs"/>

    <edge id="-156364570#1" from="2314394457" to="cluster_275525455_2796688606_614674365" priority="6" type="highway.tertiary" shape="0.00,0.00 23.18,11.98 68.27,34.53">
        <lane id="-156364570#1_0" index="0" allow="pedestrian" speed="13.89" length="89.39" width="3.00" shape="2.23,-4.31 25.38,7.66 65.89,27.92"/>
        <lane id="-156364570#1_1" index="1" disallow="rail_urban rail rail_electric pedestrian" speed="13.89" length="89.39" shape="0.76,-1.47 23.93,10.51 64.46,30.78"/>
    </edge>
    <edge id="-234463925#0" from="cluster_1275468904_2425782615_887148902" to="614672638" priority="4" type="highway.residential" shape="249.96,154.45 229.51,135.88 169.67,91.27 143.75,72.87 123.08,61.61 103.12,51.05">
        <lane id="-234463925#0_0" index="0" allow="pedestrian" speed="13.89" length="200.79" width="2.00" shape="252.75,162.86 226.74,139.24 167.11,94.79 141.44,76.57 121.02,65.44 94.37,51.34"/>
        <lane id="-234463925#0_1" index="1" disallow="rail_urban rail rail_electric pedestrian" speed="13.89" length="200.79" shape="254.57,160.86 228.46,137.16 168.70,92.60 142.87,74.27 122.30,63.06 95.63,48.96"/>
    </edge>
    <edge id="-25294729#0" from="275525457" to="cluster_275525455_2796688606_614674365" priority="4" type="highway.residential" shape="101.93,0.04 68.27,34.53">
        <lane id="-25294729#0_0" index="0" allow="pedestrian" speed="8.33" length="55.08" width="2.00" shape="105.04,3.08 75.89,32.95"/>
        <lane id="-25294729#0_1" index="1" disallow="rail_urban rail rail_electric pedestrian" speed="8.33" length="55.08" shape="103.11,1.19 73.96,31.06"/>
    </edge>
    <edge id="-275177453" from="cluster_275525455_2796688606_614674365" to="2314394458" priority="6" type="highway.tertiary" shape="87.60,49.38 87.70,53.95 85.99,59.69 68.19,96.71 49.54,136.89">
        <lane id="-275177453_0" index="0" allow="pedestrian" speed="13.89" length="106.50" width="3.00" shape="92.53,53.21 92.57,54.61 90.53,61.44 72.58,98.78 53.94,138.93"/>
        <lane id="-275177453_1" index="1" disallow="rail_urban rail rail_electric pedestrian" speed="13.89" length="106.50" shape="89.34,53.27 89.36,54.17 87.53,60.29 69.68,97.41 51.04,137.58"/>
    </edge>
    <edge id="156364570#1" from="cluster_275525455_2796688606_614674365" to="2314394457" priority="6" type="highway.tertiary" shape="68.27,34.53 23.18,11.98 0.00,0.00">
        <lane id="156364570#1_0" index="0" allow="pedestrian" speed="13.89" length="89.39" width="3.00" shape="61.55,36.59 20.98,16.30 -2.23,4.31"/>
        <lane id="156364570#1_1" index="1" disallow="rail_urban rail rail_electric pedestrian" speed="13.89" length="89.39" shape="62.98,33.73 22.43,13.45 -0.76,1.47"/>
    </edge>
    <edge id="234463931" from="614672638" to="cluster_1275468904_2425782615_887148902" priority="4" type="highway.residential" shape="103.12,51.05 123.08,61.61 143.75,72.87 169.67,91.27 229.51,135.88 249.96,154.45">
        <lane id="234463931_0" index="0" allow="pedestrian" speed="13.89" length="200.79" width="2.00" shape="98.44,43.65 125.14,57.78 146.06,69.17 172.23,87.75 232.28,132.52 258.60,156.42"/>
        <lane id="234463931_1" index="1" disallow="rail_urban rail rail_electric pedestrian" speed="13.89" length="200.79" shape="97.18,46.04 123.86,60.16 144.63,71.47 170.64,89.94 230.56,134.60 256.79,158.42"/>
    </edge>
    <edge id="25294728" from="cluster_275525455_2796688606_614674365" to="614672638" priority="1" type="highway.pedestrian" spreadType="center" shape="87.60,49.38 103.12,51.05">
        <lane id="25294728_0" index="0" allow="pedestrian" speed="8.33" length="18.19" shape="93.36,50.00 93.56,50.02"/>
    </edge>
    <edge id="25294729#0" from="cluster_275525455_2796688606_614674365" to="275525457" priority="4" type="highway.residential" shape="68.27,34.53 101.93,0.04">
        <lane id="25294729#0_0" index="0" allow="pedestrian" speed="8.33" length="55.08" width="2.00" shape="69.67,26.87 98.82,-3.00"/>
        <lane id="25294729#0_1" index="1" disallow="rail_urban rail rail_electric pedestrian" speed="8.33" length="55.08" shape="71.60,28.76 100.75,-1.11"/>
    </edge>
    <edge id="316746323#3" from="2314394458" to="cluster_275525455_2796688606_614674365" priority="6" type="highway.tertiary" shape="49.54,136.89 68.19,96.71 85.99,59.69 87.70,53.95 87.60,49.38">
        <lane id="316746323#3_0" index="0" allow="pedestrian" speed="13.89" length="106.50" width="3.00" shape="45.14,134.85 63.80,94.64 81.45,57.94 82.80,53.41"/>
        <lane id="316746323#3_1" index="1" disallow="rail_urban rail rail_electric pedestrian" speed="13.89" length="106.50" shape="48.04,136.20 66.70,96.01 84.45,59.09 86.04,53.73 86.04,53.34"/>
    </edge>

    <junction id="2314394457" type="dead_end" x="0.00" y="0.00" incLanes="156364570#1_0 156364570#1_1" intLanes="" shape="0.02,-0.04 -2.92,5.64 -0.02,0.04"/>
    <junction id="2314394458" type="dead_end" x="49.54" y="136.89" incLanes="-275177453_0 -275177453_1" intLanes="" shape="49.49,136.87 55.30,139.56 49.59,136.91"/>
    <junction id="275525457" type="dead_end" x="101.93" y="0.04" incLanes="25294729#0_0 25294729#0_1" intLanes="" shape="101.97,0.07 98.10,-3.70 101.89,0.01"/>
    <junction id="614672638" type="dead_end" x="103.12" y="51.05" incLanes="-234463925#0_0 -234463925#0_1 25294728_0" intLanes="" shape="93.90,52.23 98.91,42.77 91.43,48.18 91.09,51.36"/>
    <junction id="cluster_1275468904_2425782615_887148902" type="dead_end" x="254.01" y="161.48" incLanes="234463931_0 234463931_1" intLanes="" shape="255.64,159.68 259.27,155.68 255.71,159.61"/>
    <junction id="cluster_275525455_2796688606_614674365" type="priority" x="79.00" y="41.71" incLanes="316746323#3_0 316746323#3_1 -25294729#0_0 -25294729#0_1 -156364570#1_0 -156364570#1_1" intLanes="" shape="81.23,53.44 94.03,53.18 95.49,51.84 95.84,48.66 76.61,33.65 68.95,26.17 66.56,26.58 60.88,37.93">
        <request index="0" response="000000" foes="001000"/>
        <request index="1" response="110000" foes="111000"/>
        <request index="2" response="100000" foes="100000"/>
        <request index="3" response="100011" foes="100011"/>
        <request index="4" response="000000" foes="000010"/>
        <request index="5" response="000000" foes="001110"/>
    </junction>

    <connection from="-156364570#1" to="25294729#0" fromLane="1" toLane="1" dir="r" state="M"/>
    <connection from="-156364570#1" to="-275177453" fromLane="1" toLane="1" dir="l" state="M"/>
    <connection from="-25294729#0" to="-275177453" fromLane="1" toLane="1" dir="R" state="m"/>
    <connection from="-25294729#0" to="156364570#1" fromLane="1" toLane="1" dir="l" state="m"/>
    <connection from="316746323#3" to="156364570#1" fromLane="1" toLane="1" dir="r" state="M"/>
    <connection from="316746323#3" to="25294729#0" fromLane="1" toLane="1" dir="L" state="m"/>

</net>
