<?xml version="1.0" encoding="UTF-8"?>

<!-- generated on 2022-06-29 09:22:11 by Eclipse SUMO netedit Version v1_13_0+1291-82ac0ee5f81
-->

<routes xmlns:xsi="http://www.w3.org/2001/XMLSchema-instance" xsi:noNamespaceSchemaLocation="http://sumo.dlr.de/xsd/routes_file.xsd">
    <!-- Vehicles, persons and containers (sorted by depart) -->
    <flow id="f_0" begin="0.00" color="139,131,120" from="gneE2" to="gneE5" end="3600.00" vehsPerHour="1800.00"/>
    <flow id="f_1" begin="0.00" color="cyan" from="gneE2" to="gneE5" end="3600.00" vehsPerHour="1800.00"/>
    <flow id="f_2" begin="0.00" color="12,13,14" from="gneE2" to="gneE5" end="3600.00" vehsPerHour="1800.00"/>
</routes>
