<?xml version="1.0" encoding="UTF-8"?>

<!-- generated on 2024-07-24 09:14:37 by Eclipse SUMO netedit Version v1_20_0+1389-768a687f255
This data file and the accompanying materials
are made available under the terms of the Eclipse Public License v2.0
which accompanies this distribution, and is available at
http://www.eclipse.org/legal/epl-v20.html
This file may also be made available under the following Secondary
Licenses when the conditions for such availability set forth in the Eclipse
Public License 2.0 are satisfied: GNU General Public License, version 2
or later which is available at
https://www.gnu.org/licenses/old-licenses/gpl-2.0-standalone.html
SPDX-License-Identifier: EPL-2.0 OR GPL-2.0-or-later
-->

<additional xmlns:xsi="http://www.w3.org/2001/XMLSchema-instance" xsi:noNamespaceSchemaLocation="http://sumo.dlr.de/xsd/additional_file.xsd">
    <!-- StoppingPlaces -->
    <containerStop id="cs_0" lane="EdgeCenter1_1" startPos="21.71" endPos="31.71">
        <access lane="Edge1_0" pos="15.00"/>
    </containerStop>
</additional>
