<?xml version="1.0" encoding="UTF-8"?>

<!-- generated on Wed 11 Dec 2019 01:23:20 PM CET by Eclipse SUMO netedit Version v1_4_0+0035-a7b6fee
<configuration xmlns:xsi="http://www.w3.org/2001/XMLSchema-instance" xsi:noNamespaceSchemaLocation="http://sumo.dlr.de/xsd/netconvertConfiguration.xsd">

    <input>
        <sumo-net-file value="input_net.net.xml"/>
    </input>

    <output>
        <output-file value="input_net.net.xml"/>
    </output>

    <processing>
        <geometry.min-radius.fix.railways value="false"/>
        <geometry.max-grade.fix value="false"/>
        <offset.disable-normalization value="true"/>
        <lefthand value="false"/>
    </processing>

    <junctions>
        <no-turnarounds value="true"/>
        <junctions.corner-detail value="5"/>
        <junctions.limit-turn-speed value="5.5"/>
        <rectangular-lane-cut value="false"/>
    </junctions>

    <pedestrian>
        <walkingareas value="false"/>
    </pedestrian>

    <netedit>
        <additional-files value="input_additional.add.xml"/>
        <route-files value="/scr2/debug/6398/input_routes.rou.xml"/>
    </netedit>

    <report>
        <aggregate-warnings value="5"/>
    </report>

</configuration>
-->

<routes xmlns:xsi="http://www.w3.org/2001/XMLSchema-instance" xsi:noNamespaceSchemaLocation="http://sumo.dlr.de/xsd/routes_file.xsd">
    <vType id="joiningTrain" vClass="rail" length="100"/>
    <vType id="continuingTrain" vClass="rail" length="50"/>
    <vehicle id="t0" type="joiningTrain" depart="0.00">
        <route edges="a b e"/>
        <stop edge="e" endPos="10" duration="60.00" join="t1"/>
    </vehicle>
    <vehicle id="t1" type="continuingTrain" depart="30">
        <route edges="d b c c2"/>
        <stop edge="b" startPos="50" endPos="250" duration="5.00" triggered="join"/>
    </vehicle>
</routes>
