<?xml version="1.0" encoding="UTF-8"?>

<!-- generated on 2025-09-22T15:57:11.265236+01:00 by Eclipse SUMO sumo v1_24_0+0914-995ddafa143
This data file and the accompanying materials
are made available under the terms of the Eclipse Public License v2.0
which accompanies this distribution, and is available at
http://www.eclipse.org/legal/epl-v20.html
This file may also be made available under the following Secondary
Licenses when the conditions for such availability set forth in the Eclipse
Public License 2.0 are satisfied: GNU General Public License, version 2
or later which is available at
https://www.gnu.org/licenses/old-licenses/gpl-2.0-standalone.html
SPDX-License-Identifier: EPL-2.0 OR GPL-2.0-or-later
<sumoConfiguration xmlns:xsi="http://www.w3.org/2001/XMLSchema-instance" xsi:noNamespaceSchemaLocation="http://sumo.dlr.de/xsd/sumoConfiguration.xsd">

    <input>
        <net-file value="net2.net.xml"/>
        <route-files value="input_routes.rou.xml"/>
    </input>

    <output>
        <write-license value="true"/>
        <precision value="4"/>
        <link-output value="linkstate.xml"/>
    </output>

    <processing>
        <collision.check-junctions value="true"/>
        <time-to-teleport value="20"/>
        <default.speeddev value="0"/>
    </processing>

    <report>
        <xml-validation value="never"/>
        <duration-log.disable value="true"/>
        <no-step-log value="true"/>
    </report>

    <mesoscopic>
        <mesosim value="true"/>
        <meso-junction-control value="true"/>
    </mesoscopic>

</sumoConfiguration>
-->

<link-output>
    <timestep id="0.0000">
        <link from="NC_0" via="" to="CE_0">
            <approaching id="NE" impatience="0.0000" arrivalTime="6.152" leaveTime="8.161" arrivalSpeed="13.8898" arrivalSpeedBraking="13.8898" leaveSpeed="13.8900" willPass="1"/>
        </link>
        <link from="SC_0" via="" to="CW_0">
            <approaching id="SW" impatience="0.0000" arrivalTime="6.389" leaveTime="8.398" arrivalSpeed="13.8900" arrivalSpeedBraking="13.8900" leaveSpeed="13.8900" willPass="1"/>
        </link>
    </timestep>
    <timestep id="1.0000">
        <link from="NC_0" via="" to="CE_0">
            <approaching id="NE" impatience="0.0000" arrivalTime="6.152" leaveTime="8.161" arrivalSpeed="13.8898" arrivalSpeedBraking="13.8898" leaveSpeed="13.8900" willPass="1"/>
        </link>
        <link from="SC_0" via="" to="CW_0">
            <approaching id="SW" impatience="0.0000" arrivalTime="6.389" leaveTime="8.398" arrivalSpeed="13.8900" arrivalSpeedBraking="13.8900" leaveSpeed="13.8900" willPass="1"/>
        </link>
    </timestep>
    <timestep id="2.0000">
        <link from="NC_0" via="" to="CE_0">
            <approaching id="NE" impatience="0.0000" arrivalTime="6.152" leaveTime="8.161" arrivalSpeed="13.8898" arrivalSpeedBraking="13.8898" leaveSpeed="13.8900" willPass="1"/>
        </link>
        <link from="SC_0" via="" to="CW_0">
            <approaching id="SW" impatience="0.0000" arrivalTime="6.389" leaveTime="8.398" arrivalSpeed="13.8900" arrivalSpeedBraking="13.8900" leaveSpeed="13.8900" willPass="1"/>
        </link>
    </timestep>
    <timestep id="3.0000">
        <link from="NC_0" via="" to="CE_0">
            <approaching id="NE" impatience="0.0000" arrivalTime="6.152" leaveTime="8.161" arrivalSpeed="13.8898" arrivalSpeedBraking="13.8898" leaveSpeed="13.8900" willPass="1"/>
        </link>
        <link from="SC_0" via="" to="CW_0">
            <approaching id="SW" impatience="0.0000" arrivalTime="6.389" leaveTime="8.398" arrivalSpeed="13.8900" arrivalSpeedBraking="13.8900" leaveSpeed="13.8900" willPass="1"/>
        </link>
    </timestep>
    <timestep id="4.0000">
        <link from="NC_0" via="" to="CE_0">
            <approaching id="NE" impatience="0.0000" arrivalTime="6.152" leaveTime="8.161" arrivalSpeed="13.8898" arrivalSpeedBraking="13.8898" leaveSpeed="13.8900" willPass="1"/>
        </link>
        <link from="SC_0" via="" to="CW_0">
            <approaching id="SW" impatience="0.0000" arrivalTime="6.389" leaveTime="8.398" arrivalSpeed="13.8900" arrivalSpeedBraking="13.8900" leaveSpeed="13.8900" willPass="1"/>
        </link>
    </timestep>
    <timestep id="5.0000">
        <link from="NC_0" via="" to="CE_0">
            <approaching id="NE" impatience="0.0000" arrivalTime="6.152" leaveTime="8.161" arrivalSpeed="13.8898" arrivalSpeedBraking="13.8898" leaveSpeed="13.8900" willPass="1"/>
        </link>
        <link from="SC_0" via="" to="CW_0">
            <approaching id="SW" impatience="0.0000" arrivalTime="6.389" leaveTime="8.398" arrivalSpeed="13.8900" arrivalSpeedBraking="13.8900" leaveSpeed="13.8900" willPass="1"/>
        </link>
    </timestep>
    <timestep id="6.0000">
        <link from="NC_0" via="" to="CE_0">
            <approaching id="NE" impatience="0.0000" arrivalTime="6.152" leaveTime="8.161" arrivalSpeed="13.8898" arrivalSpeedBraking="13.8898" leaveSpeed="13.8900" willPass="1"/>
        </link>
        <link from="SC_0" via="" to="CW_0">
            <approaching id="SW" impatience="0.0000" arrivalTime="6.389" leaveTime="8.398" arrivalSpeed="13.8900" arrivalSpeedBraking="13.8900" leaveSpeed="13.8900" willPass="1"/>
        </link>
    </timestep>
    <timestep id="7.0000">
        <link from="NC_0" via="" to="CS_0">
            <approaching id="NS" impatience="0.0000" arrivalTime="7.821" leaveTime="10.303" arrivalSpeed="10.9257" arrivalSpeedBraking="10.9257" leaveSpeed="13.8900" willPass="1"/>
        </link>
        <link from="SC_0" via="" to="CW_0">
            <approaching id="SW" impatience="0.0056" arrivalTime="6.389" leaveTime="8.398" arrivalSpeed="13.8900" arrivalSpeedBraking="13.8900" leaveSpeed="13.8900" willPass="1"/>
        </link>
    </timestep>
    <timestep id="8.0000">
        <link from="SC_0" via="" to="CW_0">
            <approaching id="SW" impatience="0.0111" arrivalTime="6.389" leaveTime="8.398" arrivalSpeed="13.8900" arrivalSpeedBraking="13.8900" leaveSpeed="13.8900" willPass="1"/>
        </link>
    </timestep>
    <timestep id="9.0000">
        <link from="SC_0" via="" to="CN_0">
            <approaching id="SN" impatience="0.0000" arrivalTime="10.058" leaveTime="12.770" arrivalSpeed="8.8238" arrivalSpeedBraking="8.8238" leaveSpeed="13.8900" willPass="1"/>
        </link>
    </timestep>
    <timestep id="10.0000">
        <link from="SC_0" via="" to="CN_0">
            <approaching id="SN" impatience="0.0000" arrivalTime="10.058" leaveTime="12.770" arrivalSpeed="8.8238" arrivalSpeedBraking="8.8238" leaveSpeed="13.8900" willPass="1"/>
        </link>
    </timestep>
    <timestep id="11.0000"/>
    <timestep id="12.0000"/>
    <timestep id="13.0000"/>
    <timestep id="14.0000"/>
    <timestep id="15.0000"/>
    <timestep id="16.0000"/>
    <timestep id="17.0000"/>
</link-output>
