<?xml version="1.0" encoding="UTF-8"?>

<!-- generated on 2023-03-01 11:21:29 by Eclipse SUMO netedit Version v1_16_0+0842-611f8191fa9
-->

<additional xmlns:xsi="http://www.w3.org/2001/XMLSchema-instance" xsi:noNamespaceSchemaLocation="http://sumo.dlr.de/xsd/additional_file.xsd">
    <!-- StoppingPlaces -->
    <busStop id="bs_0" lane="center1_1" startPos="19.00" endPos="29.00">
        <access lane="E5_0" pos="5.00"/>
        <access lane="E1_0" pos="6.00"/>
    </busStop>
</additional>
