<?xml version="1.0" encoding="UTF-8"?>

<!-- generated on 2022-02-07 15:24:22 by Eclipse SUMO netedit Version v1_12_0+0319-e0399fbff66
-->

<additional xmlns:xsi="http://www.w3.org/2001/XMLSchema-instance" xsi:noNamespaceSchemaLocation="http://sumo.dlr.de/xsd/additional_file.xsd">
    <busStop id="bs_0" lane="gneE2_1" startPos="27.00" endPos="37.00">
        <access lane="gneE1_0" pos="29.00"/>
    </busStop>
</additional>
